
 *******************************************************************************

         NASA-GLENN CHEMICAL EQUILIBRIUM PROGRAM CEA2, MAY 21, 2004
                   BY  BONNIE MCBRIDE AND SANFORD GORDON
      REFS: NASA RP-1311, PART I, 1994 AND NASA RP-1311, PART II, 1996

 *******************************************************************************



 problem  case=ethanol-75-lox o/f=1.20,1.25,1.30,1.35,1.40,1.45,1.50,1.55,1.60,
       rocket  equilibrium
   p,bar=10.0,12.0,14.0,16.0,18.0,20.0,22.0,24.0,26.0,28.0,30.0,
   pi/p=18.47953,22.17543,25.87134,29.56725,33.26315,36.95906,40.65496,44.35087,4
 8.04677,51.74268,55.43859,
 react
   fuel=C2H5OH(L) wt=75  t,k=298
   fuel=H2O(L) wt=25  t,k=298
   oxid=O2(L) wt=100  t,k=90.17
 end

 OPTIONS: TP=F  HP=F  SP=F  TV=F  UV=F  SV=F  DETN=F  SHOCK=F  REFL=F  INCD=F
 RKT=T  FROZ=F  EQL=T  IONS=F  SIUNIT=T  DEBUGF=F  SHKDBG=F  DETDBG=F  TRNSPT=F

 TRACE= 0.00E+00  S/R= 0.000000E+00  H/R= 0.000000E+00  U/R= 0.000000E+00

 Pc,BAR =    10.000000    12.000000    14.000000    16.000000    18.000000    20.000000    22.000000

 Pc,BAR =    24.000000    26.000000    28.000000    30.000000

 Pc/P =    18.4795    22.1754    25.8713    29.5673    33.2632    36.9591    40.6550    44.3509    48.0468

 Pc/P =    51.7427    55.4386

 SUBSONIC AREA RATIOS =

 SUPERSONIC AREA RATIOS =

 NFZ=  1  Mdot/Ac= 0.000000E+00  Ac/At= 0.000000E+00

    REACTANT          WT.FRAC   (ENERGY/R),K   TEMP,K  DENSITY
        EXPLODED FORMULA
 F: C2H5OH(L)        0.750000  -0.333786E+05   298.00  0.0000
          C  2.00000  H  6.00000  O  1.00000
 F: H2O(L)           0.250000  -0.343786E+05   298.00  0.0000
          H  2.00000  O  1.00000
 O: O2(L)            1.000000  -0.156101E+04    90.17  0.0000
          O  2.00000

  SPECIES BEING CONSIDERED IN THIS SYSTEM
 (CONDENSED PHASE MAY HAVE NAME LISTED SEVERAL TIMES)
  LAST thermo.inp UPDATE:    9/09/04

  g 7/97  *C               tpis79  *CH              g 4/02  CH2            
  g 4/02  CH3              g11/00  CH2OH            g 7/00  CH3O           
  g 8/99  CH4              g 7/00  CH3OH            srd 01  CH3OOH         
  tpis79  *CO              g 9/99  *CO2             tpis91  COOH           
  tpis91  *C2              g 6/01  C2H              g 1/91  C2H2,acetylene 
  g 5/01  C2H2,vinylidene  g 4/02  CH2CO,ketene     g 3/02  O(CH)2O        
  srd 01  HO(CO)2OH        g 7/01  C2H3,vinyl       g 6/96  CH3CO,acetyl   
  g 1/00  C2H4             g 8/88  C2H4O,ethylen-o  g 8/88  CH3CHO,ethanal 
  g 6/00  CH3COOH          srd 01  OHCH2COOH        g 7/00  C2H5           
  g 7/00  C2H6             g 8/88  C2H5OH           g 7/00  CH3OCH3        
  srd 01  CH3O2CH3         g 8/00  C2O              tpis79  *C3            
  n 4/98  C3H3,1-propynl   n 4/98  C3H3,2-propynl   g 2/00  C3H4,allene    
  g 1/00  C3H4,propyne     g 5/90  C3H4,cyclo-      g 3/01  C3H5,allyl     
  g 2/00  C3H6,propylene   g 1/00  C3H6,cyclo-      g 6/01  C3H6O,propylox 
  g 6/97  C3H6O,acetone    g 1/02  C3H6O,propanal   g 7/01  C3H7,n-propyl  
  g 9/85  C3H7,i-propyl    g 2/00  C3H8             g 2/00  C3H8O,1propanol
  g 2/00  C3H8O,2propanol  g 7/88  C3O2             g tpis  *C4            
  g 7/01  C4H2,butadiyne   g 8/00  C4H4,1,3-cyclo-  n10/92  C4H6,butadiene 
  n10/93  C4H6,1butyne     n10/93  C4H6,2butyne     g 8/00  C4H6,cyclo-    
  n 4/88  C4H8,1-butene    n 4/88  C4H8,cis2-buten  n 4/88  C4H8,tr2-butene
  n 4/88  C4H8,isobutene   g 8/00  C4H8,cyclo-      g10/00  (CH3COOH)2     
  n10/84  C4H9,n-butyl     n10/84  C4H9,i-butyl     g 1/93  C4H9,s-butyl   
  g 1/93  C4H9,t-butyl     g12/00  C4H10,n-butane   g 8/00  C4H10,isobutane
  g 8/00  *C5              g 5/90  C5H6,1,3cyclo-   g 1/93  C5H8,cyclo-    
  n 4/87  C5H10,1-pentene  g 2/01  C5H10,cyclo-     n10/84  C5H11,pentyl   
  g 1/93  C5H11,t-pentyl   n10/85  C5H12,n-pentane  n10/85  C5H12,i-pentane
  n10/85  CH3C(CH3)2CH3    g 2/93  C6H2             g11/00  C6H5,phenyl    
  g 8/00  C6H5O,phenoxy    g 8/00  C6H6             g 8/00  C6H5OH,phenol  
  g 1/93  C6H10,cyclo-     n 4/87  C6H12,1-hexene   g 6/90  C6H12,cyclo-   
  n10/83  C6H13,n-hexyl    g 6/01  C6H14,n-hexane   g 7/01  C7H7,benzyl    
  g 1/93  C7H8             g12/00  C7H8O,cresol-mx  n 4/87  C7H14,1-heptene
  n10/83  C7H15,n-heptyl   n10/85  C7H16,n-heptane  n10/85  C7H16,2-methylh
  n 4/89  C8H8,styrene     n10/86  C8H10,ethylbenz  n 4/87  C8H16,1-octene 
  n10/83  C8H17,n-octyl    n 4/85  C8H18,n-octane   n 4/85  C8H18,isooctane
  n10/83  C9H19,n-nonyl    g 3/01  C10H8,naphthale  n10/83  C10H21,n-decyl 
  g 8/00  C12H9,o-bipheny  g 8/00  C12H10,biphenyl  g 6/97  *H             
  g 1/01  HCO              g 6/01  HCCO             g 4/02  HO2            
  tpis78  *H2              g 5/01  HCHO,formaldehy  g 6/01  HCOOH          
  g 8/89  H2O              g 6/99  H2O2             g 6/01  (HCOOH)2       
  g 5/97  *O               g 4/02  *OH              tpis89  *O2            
  g 8/01  O3               n 4/83  C(gr)            n 4/83  C(gr)          
  n 4/83  C(gr)            g11/99  H2O(cr)          g 8/01  H2O(L)         
  g 8/01  H2O(L)         

 O/F =   1.200000

                       EFFECTIVE FUEL     EFFECTIVE OXIDANT        MIXTURE
 ENTHALPY                  h(2)/R              h(1)/R               h0/R
 (KG-MOL)(K)/KG       -0.10204839E+04     -0.48783267E+02     -0.49046539E+03

 KG-FORM.WT./KG             bi(2)               bi(1)               b0i
  *C                   0.32560252E-01      0.00000000E+00      0.14800114E-01
  *H                   0.12543497E+00      0.00000000E+00      0.57015897E-01
  *O                   0.30157235E-01      0.62502344E-01      0.47800021E-01

 POINT ITN      T            C           H           O 
   1   23    2935.041     -16.538     -10.493     -16.523
 Pinf/Pt = 1.728958
   2    4    2777.955     -16.727     -10.676     -16.966
 Pinf/Pt = 1.732247
   2    2    2777.406     -16.728     -10.677     -16.967
   3    5    2037.553     -16.365     -11.275     -20.459
   4    3    1979.486     -16.246     -11.310     -20.866
   5    3    1931.054     -16.136     -11.339     -21.225
   6    3    1889.664     -16.035     -11.363     -21.549
   7    3    1853.629     -15.941     -11.385     -21.843
   8    3    1821.792     -15.853     -11.404     -22.113





              THEORETICAL ROCKET PERFORMANCE ASSUMING EQUILIBRIUM

           COMPOSITION DURING EXPANSION FROM INFINITE AREA COMBUSTOR

 Pin =   145.0 PSIA
 CASE = ethanol-75-lox 

             REACTANT                    WT FRACTION      ENERGY      TEMP
                                          (SEE NOTE)     KJ/KG-MOL      K  
 FUEL        C2H5OH(L)                    0.7500000   -277526.835    298.000
 FUEL        H2O(L)                       0.2500000   -285841.390    298.000
 OXIDANT     O2(L)                        1.0000000    -12979.000     90.170

 O/F=    1.20000  %FUEL= 45.454545  R,EQ.RATIO= 1.215652  PHI,EQ.RATIO= 1.302361

                 CHAMBER   THROAT     EXIT     EXIT     EXIT     EXIT     EXIT     EXIT
 Pinf/P            1.0000   1.7322   18.480   22.175   25.871   29.567   33.263   36.959
 P, BAR            10.000   5.7728  0.54114  0.45095  0.38653  0.33821  0.30063  0.27057
 T, K             2935.04  2777.41  2037.55  1979.49  1931.05  1889.66  1853.63  1821.79
 RHO, KG/CU M    9.2057-1 5.6669-1 7.3699-2 6.3232-2 5.5566-2 4.9690-2 4.5030-2 4.1238-2
 H, KJ/KG        -4077.98 -4656.14 -6730.09 -6862.03 -6970.61 -7062.50 -7141.90 -7211.63
 U, KJ/KG        -5164.27 -5674.83 -7464.34 -7575.20 -7666.23 -7743.14 -7809.52 -7867.75
 G, KJ/KG        -39846.7 -38503.8 -31561.3 -30985.6 -30504.0 -30091.5 -29731.7 -29413.4
 S, KJ/(KG)(K)    12.1868  12.1868  12.1868  12.1868  12.1868  12.1868  12.1868  12.1868

 M, (1/n)          22.465   22.669   23.073   23.078   23.081   23.083   23.085   23.086
 (dLV/dLP)t      -1.01578 -1.01073 -1.00039 -1.00027 -1.00020 -1.00015 -1.00012 -1.00009
 (dLV/dLT)p        1.3440   1.2474   1.0116   1.0083   1.0062   1.0048   1.0038   1.0030
 Cp, KJ/(KG)(K)    5.0998   4.3984   2.3174   2.2736   2.2434   2.2214   2.2045   2.1913
 GAMMAs            1.1303   1.1351   1.1887   1.1917   1.1938   1.1955   1.1969   1.1980
 SON VEL,M/SEC     1108.1   1075.3    934.2    921.9    911.3    902.1    893.9    886.6
 MACH NUMBER        0.000    1.000    2.465    2.560    2.639    2.708    2.769    2.824

 PERFORMANCE PARAMETERS

 Ae/At                      1.0000   3.5901   4.0841   4.5595   5.0196   5.4667   5.9027
 CSTAR, M/SEC               1641.0   1641.0   1641.0   1641.0   1641.0   1641.0   1641.0
 CF                         0.6553   1.4034   1.4379   1.4657   1.4888   1.5085   1.5255
 Ivac, M/SEC                2022.7   2621.9   2661.9   2694.5   2721.8   2745.1   2765.5
 Isp, M/SEC                 1075.3   2303.1   2359.7   2405.3   2443.2   2475.4   2503.5


 MOLE FRACTIONS

 *CO              0.17256  0.16703  0.14701  0.14516  0.14350  0.14198  0.14059  0.13930
 *CO2             0.15992  0.16847  0.19447  0.19640  0.19811  0.19965  0.20107  0.20238
 *H               0.01156  0.00887  0.00086  0.00064  0.00049  0.00039  0.00032  0.00026
 HO2              0.00001  0.00000  0.00000  0.00000  0.00000  0.00000  0.00000  0.00000
 *H2              0.08035  0.07937  0.09075  0.09264  0.09433  0.09588  0.09729  0.09861
 H2O              0.54097  0.55316  0.56626  0.56473  0.56327  0.56188  0.56058  0.55934
 *O               0.00217  0.00119  0.00000  0.00000  0.00000  0.00000  0.00000  0.00000
 *OH              0.02665  0.01856  0.00064  0.00042  0.00029  0.00021  0.00015  0.00012
 *O2              0.00580  0.00334  0.00001  0.00001  0.00000  0.00000  0.00000  0.00000

  * THERMODYNAMIC PROPERTIES FITTED TO 20000.K

    PRODUCTS WHICH WERE CONSIDERED BUT WHOSE MOLE FRACTIONS
    WERE LESS THAN 5.000000E-06 FOR ALL ASSIGNED CONDITIONS

 *C              *CH             CH2             CH3             CH2OH          
 CH3O            CH4             CH3OH           CH3OOH          COOH           
 *C2             C2H             C2H2,acetylene  C2H2,vinylidene CH2CO,ketene   
 O(CH)2O         HO(CO)2OH       C2H3,vinyl      CH3CO,acetyl    C2H4           
 C2H4O,ethylen-o CH3CHO,ethanal  CH3COOH         OHCH2COOH       C2H5           
 C2H6            C2H5OH          CH3OCH3         CH3O2CH3        C2O            
 *C3             C3H3,1-propynl  C3H3,2-propynl  C3H4,allene     C3H4,propyne   
 C3H4,cyclo-     C3H5,allyl      C3H6,propylene  C3H6,cyclo-     C3H6O,propylox 
 C3H6O,acetone   C3H6O,propanal  C3H7,n-propyl   C3H7,i-propyl   C3H8           
 C3H8O,1propanol C3H8O,2propanol C3O2            *C4             C4H2,butadiyne 
 C4H4,1,3-cyclo- C4H6,butadiene  C4H6,1butyne    C4H6,2butyne    C4H6,cyclo-    
 C4H8,1-butene   C4H8,cis2-buten C4H8,tr2-butene C4H8,isobutene  C4H8,cyclo-    
 (CH3COOH)2      C4H9,n-butyl    C4H9,i-butyl    C4H9,s-butyl    C4H9,t-butyl   
 C4H10,n-butane  C4H10,isobutane *C5             C5H6,1,3cyclo-  C5H8,cyclo-    
 C5H10,1-pentene C5H10,cyclo-    C5H11,pentyl    C5H11,t-pentyl  C5H12,n-pentane
 C5H12,i-pentane CH3C(CH3)2CH3   C6H2            C6H5,phenyl     C6H5O,phenoxy  
 C6H6            C6H5OH,phenol   C6H10,cyclo-    C6H12,1-hexene  C6H12,cyclo-   
 C6H13,n-hexyl   C6H14,n-hexane  C7H7,benzyl     C7H8            C7H8O,cresol-mx
 C7H14,1-heptene C7H15,n-heptyl  C7H16,n-heptane C7H16,2-methylh C8H8,styrene   
 C8H10,ethylbenz C8H16,1-octene  C8H17,n-octyl   C8H18,n-octane  C8H18,isooctane
 C9H19,n-nonyl   C10H8,naphthale C10H21,n-decyl  C12H9,o-bipheny C12H10,biphenyl
 HCO             HCCO            HCHO,formaldehy HCOOH           H2O2           
 (HCOOH)2        O3              C(gr)           H2O(cr)         H2O(L)         

 NOTE. WEIGHT FRACTION OF FUEL IN TOTAL FUELS AND OF OXIDANT IN TOTAL OXIDANTS





   3    3    1793.328     -15.770     -11.421     -22.363
   4    3    1767.630     -15.692     -11.437     -22.596
   5    3    1744.237     -15.619     -11.451     -22.815
   6    3    1722.793     -15.549     -11.464     -23.021
   7    3    1703.016     -15.482     -11.476     -23.216





              THEORETICAL ROCKET PERFORMANCE ASSUMING EQUILIBRIUM

           COMPOSITION DURING EXPANSION FROM INFINITE AREA COMBUSTOR

 Pin =   145.0 PSIA
 CASE = ethanol-75-lox 

             REACTANT                    WT FRACTION      ENERGY      TEMP
                                          (SEE NOTE)     KJ/KG-MOL      K  
 FUEL        C2H5OH(L)                    0.7500000   -277526.835    298.000
 FUEL        H2O(L)                       0.2500000   -285841.390    298.000
 OXIDANT     O2(L)                        1.0000000    -12979.000     90.170

 O/F=    1.20000  %FUEL= 45.454545  R,EQ.RATIO= 1.215652  PHI,EQ.RATIO= 1.302361

                 CHAMBER   THROAT     EXIT     EXIT     EXIT     EXIT     EXIT
 Pinf/P            1.0000   1.7322   40.655   44.351   48.047   51.743   55.439
 P, BAR            10.000   5.7728  0.24597  0.22547  0.20813  0.19326  0.18038
 T, K             2935.04  2777.41  1793.33  1767.63  1744.24  1722.79  1703.02
 RHO, KG/CU M    9.2057-1 5.6669-1 3.8085-2 3.5420-2 3.3134-2 3.1151-2 2.9412-2
 H, KJ/KG        -4077.98 -4656.14 -7273.68 -7329.47 -7380.08 -7426.35 -7468.90
 U, KJ/KG        -5164.27 -5674.83 -7919.53 -7966.05 -8008.22 -8046.75 -8082.18
 G, KJ/KG        -39846.7 -38503.8 -29128.6 -28871.2 -28636.8 -28421.7 -28223.2
 S, KJ/(KG)(K)    12.1868  12.1868  12.1868  12.1868  12.1868  12.1868  12.1868

 M, (1/n)          22.465   22.669   23.087   23.087   23.088   23.088   23.089
 (dLV/dLP)t      -1.01578 -1.01073 -1.00008 -1.00006 -1.00005 -1.00004 -1.00004
 (dLV/dLT)p        1.3440   1.2474   1.0025   1.0021   1.0018   1.0015   1.0013
 Cp, KJ/(KG)(K)    5.0998   4.3984   2.1805   2.1716   2.1641   2.1577   2.1521
 GAMMAs            1.1303   1.1351   1.1989   1.1997   1.2004   1.2010   1.2015
 SON VEL,M/SEC     1108.1   1075.3    880.0    873.9    868.3    863.2    858.4
 MACH NUMBER        0.000    1.000    2.873    2.918    2.960    2.998    3.034

 PERFORMANCE PARAMETERS

 Ae/At                      1.0000   6.3290   6.7466   7.1564   7.5593   7.9557
 CSTAR, M/SEC               1641.0   1641.0   1641.0   1641.0   1641.0   1641.0
 CF                         0.6553   1.5406   1.5540   1.5660   1.5769   1.5869
 Ivac, M/SEC                2022.7   2783.6   2799.7   2814.3   2827.5   2839.7
 Isp, M/SEC                 1075.3   2528.1   2550.1   2569.9   2587.8   2604.2


 MOLE FRACTIONS

 *CO              0.17256  0.16703  0.13809  0.13695  0.13587  0.13485  0.13388
 *CO2             0.15992  0.16847  0.20360  0.20475  0.20583  0.20686  0.20783
 *H               0.01156  0.00887  0.00022  0.00018  0.00015  0.00013  0.00012
 HO2              0.00001  0.00000  0.00000  0.00000  0.00000  0.00000  0.00000
 *H2              0.08035  0.07937  0.09983  0.10098  0.10207  0.10310  0.10408
 H2O              0.54097  0.55316  0.55817  0.55707  0.55601  0.55501  0.55405
 *O               0.00217  0.00119  0.00000  0.00000  0.00000  0.00000  0.00000
 *OH              0.02665  0.01856  0.00009  0.00007  0.00006  0.00005  0.00004
 *O2              0.00580  0.00334  0.00000  0.00000  0.00000  0.00000  0.00000

  * THERMODYNAMIC PROPERTIES FITTED TO 20000.K

    PRODUCTS WHICH WERE CONSIDERED BUT WHOSE MOLE FRACTIONS
    WERE LESS THAN 5.000000E-06 FOR ALL ASSIGNED CONDITIONS

 *C              *CH             CH2             CH3             CH2OH          
 CH3O            CH4             CH3OH           CH3OOH          COOH           
 *C2             C2H             C2H2,acetylene  C2H2,vinylidene CH2CO,ketene   
 O(CH)2O         HO(CO)2OH       C2H3,vinyl      CH3CO,acetyl    C2H4           
 C2H4O,ethylen-o CH3CHO,ethanal  CH3COOH         OHCH2COOH       C2H5           
 C2H6            C2H5OH          CH3OCH3         CH3O2CH3        C2O            
 *C3             C3H3,1-propynl  C3H3,2-propynl  C3H4,allene     C3H4,propyne   
 C3H4,cyclo-     C3H5,allyl      C3H6,propylene  C3H6,cyclo-     C3H6O,propylox 
 C3H6O,acetone   C3H6O,propanal  C3H7,n-propyl   C3H7,i-propyl   C3H8           
 C3H8O,1propanol C3H8O,2propanol C3O2            *C4             C4H2,butadiyne 
 C4H4,1,3-cyclo- C4H6,butadiene  C4H6,1butyne    C4H6,2butyne    C4H6,cyclo-    
 C4H8,1-butene   C4H8,cis2-buten C4H8,tr2-butene C4H8,isobutene  C4H8,cyclo-    
 (CH3COOH)2      C4H9,n-butyl    C4H9,i-butyl    C4H9,s-butyl    C4H9,t-butyl   
 C4H10,n-butane  C4H10,isobutane *C5             C5H6,1,3cyclo-  C5H8,cyclo-    
 C5H10,1-pentene C5H10,cyclo-    C5H11,pentyl    C5H11,t-pentyl  C5H12,n-pentane
 C5H12,i-pentane CH3C(CH3)2CH3   C6H2            C6H5,phenyl     C6H5O,phenoxy  
 C6H6            C6H5OH,phenol   C6H10,cyclo-    C6H12,1-hexene  C6H12,cyclo-   
 C6H13,n-hexyl   C6H14,n-hexane  C7H7,benzyl     C7H8            C7H8O,cresol-mx
 C7H14,1-heptene C7H15,n-heptyl  C7H16,n-heptane C7H16,2-methylh C8H8,styrene   
 C8H10,ethylbenz C8H16,1-octene  C8H17,n-octyl   C8H18,n-octane  C8H18,isooctane
 C9H19,n-nonyl   C10H8,naphthale C10H21,n-decyl  C12H9,o-bipheny C12H10,biphenyl
 HCO             HCCO            HCHO,formaldehy HCOOH           H2O2           
 (HCOOH)2        O3              C(gr)           H2O(cr)         H2O(L)         

 NOTE. WEIGHT FRACTION OF FUEL IN TOTAL FUELS AND OF OXIDANT IN TOTAL OXIDANTS






 POINT ITN      T            C           H           O 
   1    3    2948.283     -16.401     -10.413     -16.476
 Pinf/Pt = 1.729842
   2    4    2787.731     -16.582     -10.594     -16.927
 Pinf/Pt = 1.733350
   2    2    2787.133     -16.582     -10.594     -16.928
   3    5    2036.664     -16.178     -11.183     -20.465
   4    3    1978.412     -16.058     -11.218     -20.873
   5    3    1929.872     -15.947     -11.246     -21.234
   6    3    1888.415     -15.845     -11.271     -21.559
   7    3    1852.339     -15.750     -11.292     -21.854
   8    3    1820.476     -15.662     -11.311     -22.124





              THEORETICAL ROCKET PERFORMANCE ASSUMING EQUILIBRIUM

           COMPOSITION DURING EXPANSION FROM INFINITE AREA COMBUSTOR

 Pin =   174.0 PSIA
 CASE = ethanol-75-lox 

             REACTANT                    WT FRACTION      ENERGY      TEMP
                                          (SEE NOTE)     KJ/KG-MOL      K  
 FUEL        C2H5OH(L)                    0.7500000   -277526.835    298.000
 FUEL        H2O(L)                       0.2500000   -285841.390    298.000
 OXIDANT     O2(L)                        1.0000000    -12979.000     90.170

 O/F=    1.20000  %FUEL= 45.454545  R,EQ.RATIO= 1.215652  PHI,EQ.RATIO= 1.302361

                 CHAMBER   THROAT     EXIT     EXIT     EXIT     EXIT     EXIT     EXIT
 Pinf/P            1.0000   1.7333   18.480   22.175   25.871   29.567   33.263   36.959
 P, BAR            12.000   6.9230  0.64937  0.54114  0.46383  0.40585  0.36076  0.32468
 T, K             2948.28  2787.13  2036.66  1978.41  1929.87  1888.42  1852.34  1820.48
 RHO, KG/CU M    1.1011 0 6.7794-1 8.8484-2 7.5923-2 6.6723-2 5.9669-2 5.4075-2 4.9522-2
 H, KJ/KG        -4077.98 -4658.45 -6733.63 -6865.50 -6974.01 -7065.83 -7145.17 -7214.86
 U, KJ/KG        -5167.75 -5679.64 -7467.51 -7578.24 -7669.18 -7746.01 -7812.32 -7870.50
 G, KJ/KG        -39809.3 -38436.7 -31416.7 -30842.6 -30362.8 -29952.2 -29594.3 -29277.9
 S, KJ/(KG)(K)    12.1194  12.1194  12.1194  12.1194  12.1194  12.1194  12.1194  12.1194

 M, (1/n)          22.494   22.693   23.074   23.079   23.082   23.084   23.085   23.086
 (dLV/dLP)t      -1.01504 -1.01010 -1.00035 -1.00025 -1.00018 -1.00014 -1.00011 -1.00009
 (dLV/dLT)p        1.3268   1.2323   1.0105   1.0075   1.0056   1.0043   1.0034   1.0027
 Cp, KJ/(KG)(K)    4.9490   4.2637   2.3050   2.2645   2.2364   2.2158   2.2000   2.1875
 GAMMAs            1.1318   1.1369   1.1895   1.1922   1.1943   1.1959   1.1972   1.1983
 SON VEL,M/SEC     1110.6   1077.5    934.3    921.8    911.2    901.9    893.7    886.4
 MACH NUMBER        0.000    1.000    2.467    2.561    2.641    2.710    2.771    2.826

 PERFORMANCE PARAMETERS

 Ae/At                      1.0000   3.5820   4.0747   4.5489   5.0079   5.4539   5.8889
 CSTAR, M/SEC               1642.8   1642.8   1642.8   1642.8   1642.8   1642.8   1642.8
 CF                         0.6559   1.4029   1.4373   1.4650   1.4880   1.5076   1.5247
 Ivac, M/SEC                2025.2   2623.1   2663.0   2695.5   2722.8   2746.1   2766.5
 Isp, M/SEC                 1077.5   2304.6   2361.2   2406.7   2444.5   2476.8   2504.7


 MOLE FRACTIONS

 *CO              0.17229  0.16683  0.14699  0.14513  0.14346  0.14194  0.14054  0.13925
 *CO2             0.16063  0.16902  0.19452  0.19645  0.19816  0.19970  0.20112  0.20244
 *H               0.01098  0.00837  0.00078  0.00058  0.00045  0.00035  0.00029  0.00023
 HO2              0.00001  0.00000  0.00000  0.00000  0.00000  0.00000  0.00000  0.00000
 *H2              0.07986  0.07899  0.09079  0.09269  0.09439  0.09593  0.09735  0.09867
 H2O              0.54300  0.55485  0.56633  0.56477  0.56328  0.56188  0.56055  0.55931
 *O               0.00201  0.00108  0.00000  0.00000  0.00000  0.00000  0.00000  0.00000
 *OH              0.02582  0.01780  0.00058  0.00038  0.00026  0.00019  0.00014  0.00011
 *O2              0.00541  0.00305  0.00001  0.00000  0.00000  0.00000  0.00000  0.00000

  * THERMODYNAMIC PROPERTIES FITTED TO 20000.K

    PRODUCTS WHICH WERE CONSIDERED BUT WHOSE MOLE FRACTIONS
    WERE LESS THAN 5.000000E-06 FOR ALL ASSIGNED CONDITIONS

 *C              *CH             CH2             CH3             CH2OH          
 CH3O            CH4             CH3OH           CH3OOH          COOH           
 *C2             C2H             C2H2,acetylene  C2H2,vinylidene CH2CO,ketene   
 O(CH)2O         HO(CO)2OH       C2H3,vinyl      CH3CO,acetyl    C2H4           
 C2H4O,ethylen-o CH3CHO,ethanal  CH3COOH         OHCH2COOH       C2H5           
 C2H6            C2H5OH          CH3OCH3         CH3O2CH3        C2O            
 *C3             C3H3,1-propynl  C3H3,2-propynl  C3H4,allene     C3H4,propyne   
 C3H4,cyclo-     C3H5,allyl      C3H6,propylene  C3H6,cyclo-     C3H6O,propylox 
 C3H6O,acetone   C3H6O,propanal  C3H7,n-propyl   C3H7,i-propyl   C3H8           
 C3H8O,1propanol C3H8O,2propanol C3O2            *C4             C4H2,butadiyne 
 C4H4,1,3-cyclo- C4H6,butadiene  C4H6,1butyne    C4H6,2butyne    C4H6,cyclo-    
 C4H8,1-butene   C4H8,cis2-buten C4H8,tr2-butene C4H8,isobutene  C4H8,cyclo-    
 (CH3COOH)2      C4H9,n-butyl    C4H9,i-butyl    C4H9,s-butyl    C4H9,t-butyl   
 C4H10,n-butane  C4H10,isobutane *C5             C5H6,1,3cyclo-  C5H8,cyclo-    
 C5H10,1-pentene C5H10,cyclo-    C5H11,pentyl    C5H11,t-pentyl  C5H12,n-pentane
 C5H12,i-pentane CH3C(CH3)2CH3   C6H2            C6H5,phenyl     C6H5O,phenoxy  
 C6H6            C6H5OH,phenol   C6H10,cyclo-    C6H12,1-hexene  C6H12,cyclo-   
 C6H13,n-hexyl   C6H14,n-hexane  C7H7,benzyl     C7H8            C7H8O,cresol-mx
 C7H14,1-heptene C7H15,n-heptyl  C7H16,n-heptane C7H16,2-methylh C8H8,styrene   
 C8H10,ethylbenz C8H16,1-octene  C8H17,n-octyl   C8H18,n-octane  C8H18,isooctane
 C9H19,n-nonyl   C10H8,naphthale C10H21,n-decyl  C12H9,o-bipheny C12H10,biphenyl
 HCO             HCCO            HCHO,formaldehy HCOOH           H2O2           
 (HCOOH)2        O3              C(gr)           H2O(cr)         H2O(L)         

 NOTE. WEIGHT FRACTION OF FUEL IN TOTAL FUELS AND OF OXIDANT IN TOTAL OXIDANTS





   3    3    1791.997     -15.579     -11.329     -22.375
   4    3    1766.290     -15.501     -11.344     -22.609
   5    3    1742.892     -15.427     -11.358     -22.828
   6    3    1721.447     -15.357     -11.371     -23.034
   7    3    1701.671     -15.290     -11.384     -23.230





              THEORETICAL ROCKET PERFORMANCE ASSUMING EQUILIBRIUM

           COMPOSITION DURING EXPANSION FROM INFINITE AREA COMBUSTOR

 Pin =   174.0 PSIA
 CASE = ethanol-75-lox 

             REACTANT                    WT FRACTION      ENERGY      TEMP
                                          (SEE NOTE)     KJ/KG-MOL      K  
 FUEL        C2H5OH(L)                    0.7500000   -277526.835    298.000
 FUEL        H2O(L)                       0.2500000   -285841.390    298.000
 OXIDANT     O2(L)                        1.0000000    -12979.000     90.170

 O/F=    1.20000  %FUEL= 45.454545  R,EQ.RATIO= 1.215652  PHI,EQ.RATIO= 1.302361

                 CHAMBER   THROAT     EXIT     EXIT     EXIT     EXIT     EXIT
 Pinf/P            1.0000   1.7333   40.655   44.351   48.047   51.743   55.439
 P, BAR            12.000   6.9230  0.29517  0.27057  0.24976  0.23192  0.21646
 T, K             2948.28  2787.13  1792.00  1766.29  1742.89  1721.45  1701.67
 RHO, KG/CU M    1.1011 0 6.7794-1 4.5737-2 4.2537-2 3.9792-2 3.7411-2 3.5323-2
 H, KJ/KG        -4077.98 -4658.45 -7276.86 -7332.61 -7383.18 -7429.41 -7471.93
 U, KJ/KG        -5167.75 -5679.64 -7922.22 -7968.69 -8010.83 -8049.33 -8084.72
 G, KJ/KG        -39809.3 -38436.7 -28994.7 -28738.9 -28505.9 -28292.3 -28095.1
 S, KJ/(KG)(K)    12.1194  12.1194  12.1194  12.1194  12.1194  12.1194  12.1194

 M, (1/n)          22.494   22.693   23.087   23.088   23.088   23.089   23.089
 (dLV/dLP)t      -1.01504 -1.01010 -1.00007 -1.00006 -1.00005 -1.00004 -1.00003
 (dLV/dLT)p        1.3268   1.2323   1.0023   1.0019   1.0016   1.0013   1.0012
 Cp, KJ/(KG)(K)    4.9490   4.2637   2.1774   2.1690   2.1618   2.1557   2.1503
 GAMMAs            1.1318   1.1369   1.1991   1.1999   1.2006   1.2011   1.2017
 SON VEL,M/SEC     1110.6   1077.5    879.7    873.6    868.1    862.9    858.1
 MACH NUMBER        0.000    1.000    2.875    2.920    2.962    3.000    3.036

 PERFORMANCE PARAMETERS

 Ae/At                      1.0000   6.3142   6.7308   7.1397   7.5417   7.9372
 CSTAR, M/SEC               1642.8   1642.8   1642.8   1642.8   1642.8   1642.8
 CF                         0.6559   1.5397   1.5530   1.5651   1.5760   1.5859
 Ivac, M/SEC                2025.2   2784.5   2800.6   2815.2   2828.4   2840.6
 Isp, M/SEC                 1077.5   2529.4   2551.3   2571.1   2589.0   2605.4


 MOLE FRACTIONS

 *CO              0.17229  0.16683  0.13803  0.13689  0.13581  0.13479  0.13381
 *CO2             0.16063  0.16902  0.20366  0.20481  0.20589  0.20692  0.20790
 *H               0.01098  0.00837  0.00019  0.00016  0.00014  0.00012  0.00010
 HO2              0.00001  0.00000  0.00000  0.00000  0.00000  0.00000  0.00000
 *H2              0.07986  0.07899  0.09990  0.10105  0.10214  0.10317  0.10415
 H2O              0.54300  0.55485  0.55813  0.55702  0.55596  0.55495  0.55399
 *O               0.00201  0.00108  0.00000  0.00000  0.00000  0.00000  0.00000
 *OH              0.02582  0.01780  0.00008  0.00006  0.00005  0.00004  0.00003
 *O2              0.00541  0.00305  0.00000  0.00000  0.00000  0.00000  0.00000

  * THERMODYNAMIC PROPERTIES FITTED TO 20000.K

    PRODUCTS WHICH WERE CONSIDERED BUT WHOSE MOLE FRACTIONS
    WERE LESS THAN 5.000000E-06 FOR ALL ASSIGNED CONDITIONS

 *C              *CH             CH2             CH3             CH2OH          
 CH3O            CH4             CH3OH           CH3OOH          COOH           
 *C2             C2H             C2H2,acetylene  C2H2,vinylidene CH2CO,ketene   
 O(CH)2O         HO(CO)2OH       C2H3,vinyl      CH3CO,acetyl    C2H4           
 C2H4O,ethylen-o CH3CHO,ethanal  CH3COOH         OHCH2COOH       C2H5           
 C2H6            C2H5OH          CH3OCH3         CH3O2CH3        C2O            
 *C3             C3H3,1-propynl  C3H3,2-propynl  C3H4,allene     C3H4,propyne   
 C3H4,cyclo-     C3H5,allyl      C3H6,propylene  C3H6,cyclo-     C3H6O,propylox 
 C3H6O,acetone   C3H6O,propanal  C3H7,n-propyl   C3H7,i-propyl   C3H8           
 C3H8O,1propanol C3H8O,2propanol C3O2            *C4             C4H2,butadiyne 
 C4H4,1,3-cyclo- C4H6,butadiene  C4H6,1butyne    C4H6,2butyne    C4H6,cyclo-    
 C4H8,1-butene   C4H8,cis2-buten C4H8,tr2-butene C4H8,isobutene  C4H8,cyclo-    
 (CH3COOH)2      C4H9,n-butyl    C4H9,i-butyl    C4H9,s-butyl    C4H9,t-butyl   
 C4H10,n-butane  C4H10,isobutane *C5             C5H6,1,3cyclo-  C5H8,cyclo-    
 C5H10,1-pentene C5H10,cyclo-    C5H11,pentyl    C5H11,t-pentyl  C5H12,n-pentane
 C5H12,i-pentane CH3C(CH3)2CH3   C6H2            C6H5,phenyl     C6H5O,phenoxy  
 C6H6            C6H5OH,phenol   C6H10,cyclo-    C6H12,1-hexene  C6H12,cyclo-   
 C6H13,n-hexyl   C6H14,n-hexane  C7H7,benzyl     C7H8            C7H8O,cresol-mx
 C7H14,1-heptene C7H15,n-heptyl  C7H16,n-heptane C7H16,2-methylh C8H8,styrene   
 C8H10,ethylbenz C8H16,1-octene  C8H17,n-octyl   C8H18,n-octane  C8H18,isooctane
 C9H19,n-nonyl   C10H8,naphthale C10H21,n-decyl  C12H9,o-bipheny C12H10,biphenyl
 HCO             HCCO            HCHO,formaldehy HCOOH           H2O2           
 (HCOOH)2        O3              C(gr)           H2O(cr)         H2O(L)         

 NOTE. WEIGHT FRACTION OF FUEL IN TOTAL FUELS AND OF OXIDANT IN TOTAL OXIDANTS






 POINT ITN      T            C           H           O 
   1    3    2959.286     -16.284     -10.345     -16.437
 Pinf/Pt = 1.730604
   2    4    2795.749     -16.458     -10.524     -16.895
 Pinf/Pt = 1.734296
   2    2    2795.108     -16.459     -10.524     -16.897
   3    5    2035.918     -16.020     -11.105     -20.470
   4    3    1977.525     -15.899     -11.140     -20.880
   5    3    1928.902     -15.787     -11.168     -21.242
   6    3    1887.395     -15.685     -11.193     -21.567
   7    3    1851.287     -15.590     -11.214     -21.862
   8    3    1819.406     -15.501     -11.233     -22.134





              THEORETICAL ROCKET PERFORMANCE ASSUMING EQUILIBRIUM

           COMPOSITION DURING EXPANSION FROM INFINITE AREA COMBUSTOR

 Pin =   203.1 PSIA
 CASE = ethanol-75-lox 

             REACTANT                    WT FRACTION      ENERGY      TEMP
                                          (SEE NOTE)     KJ/KG-MOL      K  
 FUEL        C2H5OH(L)                    0.7500000   -277526.835    298.000
 FUEL        H2O(L)                       0.2500000   -285841.390    298.000
 OXIDANT     O2(L)                        1.0000000    -12979.000     90.170

 O/F=    1.20000  %FUEL= 45.454545  R,EQ.RATIO= 1.215652  PHI,EQ.RATIO= 1.302361

                 CHAMBER   THROAT     EXIT     EXIT     EXIT     EXIT     EXIT     EXIT
 Pinf/P            1.0000   1.7343   18.480   22.175   25.871   29.567   33.263   36.959
 P, BAR            14.000   8.0724  0.75760  0.63133  0.54114  0.47350  0.42089  0.37880
 T, K             2959.29  2795.11  2035.92  1977.53  1928.90  1887.39  1851.29  1819.41
 RHO, KG/CU M    1.2813 0 7.8892-1 1.0327-1 8.8620-2 7.7884-2 6.9653-2 6.3125-2 5.7810-2
 H, KJ/KG        -4077.98 -4660.38 -6736.48 -6868.29 -6976.75 -7068.52 -7147.82 -7217.46
 U, KJ/KG        -5170.64 -5683.61 -7470.05 -7580.69 -7671.55 -7748.32 -7814.57 -7872.71
 G, KJ/KG        -39774.1 -38376.2 -31294.6 -30722.0 -30244.0 -29835.1 -29478.8 -29163.9
 S, KJ/(KG)(K)    12.0624  12.0624  12.0624  12.0624  12.0624  12.0624  12.0624  12.0624

 M, (1/n)          22.519   22.713   23.076   23.080   23.083   23.085   23.086   23.087
 (dLV/dLP)t      -1.01442 -1.00958 -1.00032 -1.00023 -1.00017 -1.00013 -1.00010 -1.00008
 (dLV/dLT)p        1.3126   1.2199   1.0097   1.0069   1.0051   1.0040   1.0031   1.0025
 Cp, KJ/(KG)(K)    4.8251   4.1541   2.2955   2.2575   2.2310   2.2115   2.1966   2.1847
 GAMMAs            1.1330   1.1384   1.1900   1.1927   1.1947   1.1962   1.1974   1.1985
 SON VEL,M/SEC     1112.7   1079.3    934.3    921.8    911.1    901.8    893.5    886.2
 MACH NUMBER        0.000    1.000    2.468    2.563    2.643    2.712    2.773    2.828

 PERFORMANCE PARAMETERS

 Ae/At                      1.0000   3.5755   4.0671   4.5404   4.9984   5.4436   5.8778
 CSTAR, M/SEC               1644.2   1644.2   1644.2   1644.2   1644.2   1644.2   1644.2
 CF                         0.6564   1.4024   1.4367   1.4644   1.4874   1.5070   1.5240
 Ivac, M/SEC                2027.3   2624.0   2663.9   2696.4   2723.6   2746.9   2767.3
 Isp, M/SEC                 1079.3   2305.9   2362.3   2407.8   2445.6   2477.8   2505.8


 MOLE FRACTIONS

 *CO              0.17205  0.16667  0.14697  0.14510  0.14343  0.14191  0.14051  0.13921
 *CO2             0.16122  0.16948  0.19455  0.19648  0.19820  0.19975  0.20117  0.20248
 *H               0.01050  0.00795  0.00072  0.00053  0.00041  0.00033  0.00026  0.00022
 HO2              0.00001  0.00000  0.00000  0.00000  0.00000  0.00000  0.00000  0.00000
 *H2              0.07945  0.07869  0.09082  0.09273  0.09443  0.09598  0.09740  0.09872
 H2O              0.54470  0.55624  0.56639  0.56480  0.56329  0.56187  0.56054  0.55928
 *O               0.00187  0.00099  0.00000  0.00000  0.00000  0.00000  0.00000  0.00000
 *OH              0.02510  0.01715  0.00054  0.00035  0.00024  0.00017  0.00013  0.00010
 *O2              0.00509  0.00282  0.00001  0.00000  0.00000  0.00000  0.00000  0.00000

  * THERMODYNAMIC PROPERTIES FITTED TO 20000.K

    PRODUCTS WHICH WERE CONSIDERED BUT WHOSE MOLE FRACTIONS
    WERE LESS THAN 5.000000E-06 FOR ALL ASSIGNED CONDITIONS

 *C              *CH             CH2             CH3             CH2OH          
 CH3O            CH4             CH3OH           CH3OOH          COOH           
 *C2             C2H             C2H2,acetylene  C2H2,vinylidene CH2CO,ketene   
 O(CH)2O         HO(CO)2OH       C2H3,vinyl      CH3CO,acetyl    C2H4           
 C2H4O,ethylen-o CH3CHO,ethanal  CH3COOH         OHCH2COOH       C2H5           
 C2H6            C2H5OH          CH3OCH3         CH3O2CH3        C2O            
 *C3             C3H3,1-propynl  C3H3,2-propynl  C3H4,allene     C3H4,propyne   
 C3H4,cyclo-     C3H5,allyl      C3H6,propylene  C3H6,cyclo-     C3H6O,propylox 
 C3H6O,acetone   C3H6O,propanal  C3H7,n-propyl   C3H7,i-propyl   C3H8           
 C3H8O,1propanol C3H8O,2propanol C3O2            *C4             C4H2,butadiyne 
 C4H4,1,3-cyclo- C4H6,butadiene  C4H6,1butyne    C4H6,2butyne    C4H6,cyclo-    
 C4H8,1-butene   C4H8,cis2-buten C4H8,tr2-butene C4H8,isobutene  C4H8,cyclo-    
 (CH3COOH)2      C4H9,n-butyl    C4H9,i-butyl    C4H9,s-butyl    C4H9,t-butyl   
 C4H10,n-butane  C4H10,isobutane *C5             C5H6,1,3cyclo-  C5H8,cyclo-    
 C5H10,1-pentene C5H10,cyclo-    C5H11,pentyl    C5H11,t-pentyl  C5H12,n-pentane
 C5H12,i-pentane CH3C(CH3)2CH3   C6H2            C6H5,phenyl     C6H5O,phenoxy  
 C6H6            C6H5OH,phenol   C6H10,cyclo-    C6H12,1-hexene  C6H12,cyclo-   
 C6H13,n-hexyl   C6H14,n-hexane  C7H7,benzyl     C7H8            C7H8O,cresol-mx
 C7H14,1-heptene C7H15,n-heptyl  C7H16,n-heptane C7H16,2-methylh C8H8,styrene   
 C8H10,ethylbenz C8H16,1-octene  C8H17,n-octyl   C8H18,n-octane  C8H18,isooctane
 C9H19,n-nonyl   C10H8,naphthale C10H21,n-decyl  C12H9,o-bipheny C12H10,biphenyl
 HCO             HCCO            HCHO,formaldehy HCOOH           H2O2           
 (HCOOH)2        O3              C(gr)           H2O(cr)         H2O(L)         

 NOTE. WEIGHT FRACTION OF FUEL IN TOTAL FUELS AND OF OXIDANT IN TOTAL OXIDANTS





   3    3    1790.916     -15.418     -11.250     -22.385
   4    3    1765.203     -15.340     -11.266     -22.619
   5    3    1741.803     -15.266     -11.280     -22.838
   6    3    1720.357     -15.196     -11.293     -23.045
   7    3    1700.583     -15.129     -11.305     -23.240





              THEORETICAL ROCKET PERFORMANCE ASSUMING EQUILIBRIUM

           COMPOSITION DURING EXPANSION FROM INFINITE AREA COMBUSTOR

 Pin =   203.1 PSIA
 CASE = ethanol-75-lox 

             REACTANT                    WT FRACTION      ENERGY      TEMP
                                          (SEE NOTE)     KJ/KG-MOL      K  
 FUEL        C2H5OH(L)                    0.7500000   -277526.835    298.000
 FUEL        H2O(L)                       0.2500000   -285841.390    298.000
 OXIDANT     O2(L)                        1.0000000    -12979.000     90.170

 O/F=    1.20000  %FUEL= 45.454545  R,EQ.RATIO= 1.215652  PHI,EQ.RATIO= 1.302361

                 CHAMBER   THROAT     EXIT     EXIT     EXIT     EXIT     EXIT
 Pinf/P            1.0000   1.7343   40.655   44.351   48.047   51.743   55.439
 P, BAR            14.000   8.0724  0.34436  0.31566  0.29138  0.27057  0.25253
 T, K             2959.29  2795.11  1790.92  1765.20  1741.80  1720.36  1700.58
 RHO, KG/CU M    1.2813 0 7.8892-1 5.3392-2 4.9657-2 4.6454-2 4.3674-2 4.1237-2
 H, KJ/KG        -4077.98 -4660.38 -7279.42 -7335.14 -7385.68 -7431.88 -7474.38
 U, KJ/KG        -5170.64 -5683.61 -7924.39 -7970.83 -8012.93 -8051.40 -8086.77
 G, KJ/KG        -39774.1 -38376.2 -28882.2 -28627.8 -28396.0 -28183.6 -27987.5
 S, KJ/(KG)(K)    12.0624  12.0624  12.0624  12.0624  12.0624  12.0624  12.0624

 M, (1/n)          22.519   22.713   23.087   23.088   23.088   23.089   23.089
 (dLV/dLP)t      -1.01442 -1.00958 -1.00006 -1.00005 -1.00004 -1.00004 -1.00003
 (dLV/dLT)p        1.3126   1.2199   1.0021   1.0017   1.0014   1.0012   1.0011
 Cp, KJ/(KG)(K)    4.8251   4.1541   2.1750   2.1669   2.1600   2.1541   2.1490
 GAMMAs            1.1330   1.1384   1.1993   1.2001   1.2007   1.2013   1.2018
 SON VEL,M/SEC     1112.7   1079.3    879.5    873.4    867.8    862.7    857.9
 MACH NUMBER        0.000    1.000    2.877    2.922    2.964    3.002    3.038

 PERFORMANCE PARAMETERS

 Ae/At                      1.0000   6.3022   6.7181   7.1263   7.5275   7.9223
 CSTAR, M/SEC               1644.2   1644.2   1644.2   1644.2   1644.2   1644.2
 CF                         0.6564   1.5389   1.5523   1.5643   1.5752   1.5851
 Ivac, M/SEC                2027.3   2785.3   2801.4   2815.9   2829.1   2841.3
 Isp, M/SEC                 1079.3   2530.4   2552.3   2572.0   2589.9   2606.3


 MOLE FRACTIONS

 *CO              0.17205  0.16667  0.13799  0.13684  0.13576  0.13474  0.13376
 *CO2             0.16122  0.16948  0.20371  0.20486  0.20595  0.20698  0.20796
 *H               0.01050  0.00795  0.00018  0.00015  0.00013  0.00011  0.00010
 HO2              0.00001  0.00000  0.00000  0.00000  0.00000  0.00000  0.00000
 *H2              0.07945  0.07869  0.09995  0.10110  0.10219  0.10323  0.10421
 H2O              0.54470  0.55624  0.55810  0.55698  0.55592  0.55491  0.55394
 *O               0.00187  0.00099  0.00000  0.00000  0.00000  0.00000  0.00000
 *OH              0.02510  0.01715  0.00007  0.00006  0.00005  0.00004  0.00003
 *O2              0.00509  0.00282  0.00000  0.00000  0.00000  0.00000  0.00000

  * THERMODYNAMIC PROPERTIES FITTED TO 20000.K

    PRODUCTS WHICH WERE CONSIDERED BUT WHOSE MOLE FRACTIONS
    WERE LESS THAN 5.000000E-06 FOR ALL ASSIGNED CONDITIONS

 *C              *CH             CH2             CH3             CH2OH          
 CH3O            CH4             CH3OH           CH3OOH          COOH           
 *C2             C2H             C2H2,acetylene  C2H2,vinylidene CH2CO,ketene   
 O(CH)2O         HO(CO)2OH       C2H3,vinyl      CH3CO,acetyl    C2H4           
 C2H4O,ethylen-o CH3CHO,ethanal  CH3COOH         OHCH2COOH       C2H5           
 C2H6            C2H5OH          CH3OCH3         CH3O2CH3        C2O            
 *C3             C3H3,1-propynl  C3H3,2-propynl  C3H4,allene     C3H4,propyne   
 C3H4,cyclo-     C3H5,allyl      C3H6,propylene  C3H6,cyclo-     C3H6O,propylox 
 C3H6O,acetone   C3H6O,propanal  C3H7,n-propyl   C3H7,i-propyl   C3H8           
 C3H8O,1propanol C3H8O,2propanol C3O2            *C4             C4H2,butadiyne 
 C4H4,1,3-cyclo- C4H6,butadiene  C4H6,1butyne    C4H6,2butyne    C4H6,cyclo-    
 C4H8,1-butene   C4H8,cis2-buten C4H8,tr2-butene C4H8,isobutene  C4H8,cyclo-    
 (CH3COOH)2      C4H9,n-butyl    C4H9,i-butyl    C4H9,s-butyl    C4H9,t-butyl   
 C4H10,n-butane  C4H10,isobutane *C5             C5H6,1,3cyclo-  C5H8,cyclo-    
 C5H10,1-pentene C5H10,cyclo-    C5H11,pentyl    C5H11,t-pentyl  C5H12,n-pentane
 C5H12,i-pentane CH3C(CH3)2CH3   C6H2            C6H5,phenyl     C6H5O,phenoxy  
 C6H6            C6H5OH,phenol   C6H10,cyclo-    C6H12,1-hexene  C6H12,cyclo-   
 C6H13,n-hexyl   C6H14,n-hexane  C7H7,benzyl     C7H8            C7H8O,cresol-mx
 C7H14,1-heptene C7H15,n-heptyl  C7H16,n-heptane C7H16,2-methylh C8H8,styrene   
 C8H10,ethylbenz C8H16,1-octene  C8H17,n-octyl   C8H18,n-octane  C8H18,isooctane
 C9H19,n-nonyl   C10H8,naphthale C10H21,n-decyl  C12H9,o-bipheny C12H10,biphenyl
 HCO             HCCO            HCHO,formaldehy HCOOH           H2O2           
 (HCOOH)2        O3              C(gr)           H2O(cr)         H2O(L)         

 NOTE. WEIGHT FRACTION OF FUEL IN TOTAL FUELS AND OF OXIDANT IN TOTAL OXIDANTS






 POINT ITN      T            C           H           O 
   1    3    2968.666     -16.183     -10.286     -16.404
 Pinf/Pt = 1.731273
   2    4    2802.505     -16.350     -10.463     -16.868
 Pinf/Pt = 1.735123
   2    2    2801.827     -16.351     -10.464     -16.870
   3    5    2035.278     -15.884     -11.038     -20.474
   4    3    1976.773     -15.761     -11.072     -20.885
   5    3    1928.084     -15.649     -11.101     -21.248
   6    3    1886.538     -15.546     -11.125     -21.574
   7    3    1850.407     -15.451     -11.146     -21.870
   8    3    1818.511     -15.362     -11.165     -22.141





              THEORETICAL ROCKET PERFORMANCE ASSUMING EQUILIBRIUM

           COMPOSITION DURING EXPANSION FROM INFINITE AREA COMBUSTOR

 Pin =   232.1 PSIA
 CASE = ethanol-75-lox 

             REACTANT                    WT FRACTION      ENERGY      TEMP
                                          (SEE NOTE)     KJ/KG-MOL      K  
 FUEL        C2H5OH(L)                    0.7500000   -277526.835    298.000
 FUEL        H2O(L)                       0.2500000   -285841.390    298.000
 OXIDANT     O2(L)                        1.0000000    -12979.000     90.170

 O/F=    1.20000  %FUEL= 45.454545  R,EQ.RATIO= 1.215652  PHI,EQ.RATIO= 1.302361

                 CHAMBER   THROAT     EXIT     EXIT     EXIT     EXIT     EXIT     EXIT
 Pinf/P            1.0000   1.7351   18.480   22.175   25.871   29.567   33.263   36.959
 P, BAR            16.000   9.2212  0.86582  0.72152  0.61844  0.54114  0.48101  0.43291
 T, K             2968.67  2801.83  2035.28  1976.77  1928.08  1886.54  1850.41  1818.51
 RHO, KG/CU M    1.4610 0 8.9969-1 1.1807-1 1.0132-1 8.9051-2 7.9641-2 7.2178-2 6.6102-2
 H, KJ/KG        -4077.98 -4662.04 -6738.86 -6870.62 -6979.03 -7070.76 -7150.02 -7219.63
 U, KJ/KG        -5173.09 -5686.97 -7472.17 -7582.72 -7673.52 -7750.23 -7816.45 -7874.54
 G, KJ/KG        -39741.0 -38320.8 -31188.9 -30617.9 -30141.4 -29734.0 -29379.2 -29065.7
 S, KJ/(KG)(K)    12.0131  12.0131  12.0131  12.0131  12.0131  12.0131  12.0131  12.0131

 M, (1/n)          22.539   22.729   23.077   23.081   23.083   23.085   23.086   23.087
 (dLV/dLP)t      -1.01390 -1.00914 -1.00030 -1.00021 -1.00015 -1.00012 -1.00009 -1.00007
 (dLV/dLT)p        1.3004   1.2095   1.0090   1.0064   1.0048   1.0037   1.0029   1.0023
 Cp, KJ/(KG)(K)    4.7203   4.0624   2.2879   2.2519   2.2267   2.2081   2.1938   2.1824
 GAMMAs            1.1341   1.1397   1.1905   1.1931   1.1950   1.1964   1.1976   1.1986
 SON VEL,M/SEC     1114.4   1080.8    934.3    921.7    911.0    901.6    893.4    886.0
 MACH NUMBER        0.000    1.000    2.469    2.564    2.644    2.713    2.775    2.829

 PERFORMANCE PARAMETERS

 Ae/At                      1.0000   3.5700   4.0608   4.5332   4.9905   5.4350   5.8685
 CSTAR, M/SEC               1645.4   1645.4   1645.4   1645.4   1645.4   1645.4   1645.4
 CF                         0.6568   1.4020   1.4363   1.4639   1.4869   1.5064   1.5234
 Ivac, M/SEC                2029.1   2624.8   2664.6   2697.1   2724.3   2747.6   2767.9
 Isp, M/SEC                 1080.8   2306.9   2363.3   2408.8   2446.5   2478.7   2506.7


 MOLE FRACTIONS

 *CO              0.17185  0.16653  0.14696  0.14508  0.14341  0.14188  0.14047  0.13917
 *CO2             0.16173  0.16986  0.19458  0.19651  0.19823  0.19978  0.20120  0.20252
 *H               0.01009  0.00761  0.00067  0.00050  0.00038  0.00030  0.00024  0.00020
 HO2              0.00001  0.00000  0.00000  0.00000  0.00000  0.00000  0.00000  0.00000
 *H2              0.07910  0.07844  0.09085  0.09276  0.09447  0.09602  0.09744  0.09876
 H2O              0.54615  0.55742  0.56643  0.56481  0.56329  0.56186  0.56052  0.55926
 *O               0.00176  0.00092  0.00000  0.00000  0.00000  0.00000  0.00000  0.00000
 *OH              0.02448  0.01659  0.00050  0.00033  0.00023  0.00016  0.00012  0.00009
 *O2              0.00482  0.00263  0.00001  0.00000  0.00000  0.00000  0.00000  0.00000

  * THERMODYNAMIC PROPERTIES FITTED TO 20000.K

    PRODUCTS WHICH WERE CONSIDERED BUT WHOSE MOLE FRACTIONS
    WERE LESS THAN 5.000000E-06 FOR ALL ASSIGNED CONDITIONS

 *C              *CH             CH2             CH3             CH2OH          
 CH3O            CH4             CH3OH           CH3OOH          COOH           
 *C2             C2H             C2H2,acetylene  C2H2,vinylidene CH2CO,ketene   
 O(CH)2O         HO(CO)2OH       C2H3,vinyl      CH3CO,acetyl    C2H4           
 C2H4O,ethylen-o CH3CHO,ethanal  CH3COOH         OHCH2COOH       C2H5           
 C2H6            C2H5OH          CH3OCH3         CH3O2CH3        C2O            
 *C3             C3H3,1-propynl  C3H3,2-propynl  C3H4,allene     C3H4,propyne   
 C3H4,cyclo-     C3H5,allyl      C3H6,propylene  C3H6,cyclo-     C3H6O,propylox 
 C3H6O,acetone   C3H6O,propanal  C3H7,n-propyl   C3H7,i-propyl   C3H8           
 C3H8O,1propanol C3H8O,2propanol C3O2            *C4             C4H2,butadiyne 
 C4H4,1,3-cyclo- C4H6,butadiene  C4H6,1butyne    C4H6,2butyne    C4H6,cyclo-    
 C4H8,1-butene   C4H8,cis2-buten C4H8,tr2-butene C4H8,isobutene  C4H8,cyclo-    
 (CH3COOH)2      C4H9,n-butyl    C4H9,i-butyl    C4H9,s-butyl    C4H9,t-butyl   
 C4H10,n-butane  C4H10,isobutane *C5             C5H6,1,3cyclo-  C5H8,cyclo-    
 C5H10,1-pentene C5H10,cyclo-    C5H11,pentyl    C5H11,t-pentyl  C5H12,n-pentane
 C5H12,i-pentane CH3C(CH3)2CH3   C6H2            C6H5,phenyl     C6H5O,phenoxy  
 C6H6            C6H5OH,phenol   C6H10,cyclo-    C6H12,1-hexene  C6H12,cyclo-   
 C6H13,n-hexyl   C6H14,n-hexane  C7H7,benzyl     C7H8            C7H8O,cresol-mx
 C7H14,1-heptene C7H15,n-heptyl  C7H16,n-heptane C7H16,2-methylh C8H8,styrene   
 C8H10,ethylbenz C8H16,1-octene  C8H17,n-octyl   C8H18,n-octane  C8H18,isooctane
 C9H19,n-nonyl   C10H8,naphthale C10H21,n-decyl  C12H9,o-bipheny C12H10,biphenyl
 HCO             HCCO            HCHO,formaldehy HCOOH           H2O2           
 (HCOOH)2        O3              C(gr)           H2O(cr)         H2O(L)         

 NOTE. WEIGHT FRACTION OF FUEL IN TOTAL FUELS AND OF OXIDANT IN TOTAL OXIDANTS





   3    3    1790.012     -15.279     -11.182     -22.393
   4    3    1764.295     -15.200     -11.198     -22.627
   5    3    1740.894     -15.126     -11.212     -22.847
   6    3    1719.449     -15.056     -11.225     -23.054
   7    3    1699.676     -14.989     -11.238     -23.250





              THEORETICAL ROCKET PERFORMANCE ASSUMING EQUILIBRIUM

           COMPOSITION DURING EXPANSION FROM INFINITE AREA COMBUSTOR

 Pin =   232.1 PSIA
 CASE = ethanol-75-lox 

             REACTANT                    WT FRACTION      ENERGY      TEMP
                                          (SEE NOTE)     KJ/KG-MOL      K  
 FUEL        C2H5OH(L)                    0.7500000   -277526.835    298.000
 FUEL        H2O(L)                       0.2500000   -285841.390    298.000
 OXIDANT     O2(L)                        1.0000000    -12979.000     90.170

 O/F=    1.20000  %FUEL= 45.454545  R,EQ.RATIO= 1.215652  PHI,EQ.RATIO= 1.302361

                 CHAMBER   THROAT     EXIT     EXIT     EXIT     EXIT     EXIT
 Pinf/P            1.0000   1.7351   40.655   44.351   48.047   51.743   55.439
 P, BAR            16.000   9.2212  0.39356  0.36076  0.33301  0.30922  0.28861
 T, K             2968.67  2801.83  1790.01  1764.30  1740.89  1719.45  1699.68
 RHO, KG/CU M    1.4610 0 8.9969-1 6.1051-2 5.6780-2 5.3118-2 4.9940-2 4.7153-2
 H, KJ/KG        -4077.98 -4662.04 -7281.56 -7337.24 -7387.76 -7433.93 -7476.41
 U, KJ/KG        -5173.09 -5686.97 -7926.19 -7972.60 -8014.68 -8053.12 -8088.47
 G, KJ/KG        -39741.0 -38320.8 -28785.2 -28532.0 -28301.4 -28089.9 -27894.8
 S, KJ/(KG)(K)    12.0131  12.0131  12.0131  12.0131  12.0131  12.0131  12.0131

 M, (1/n)          22.539   22.729   23.088   23.088   23.089   23.089   23.089
 (dLV/dLP)t      -1.01390 -1.00914 -1.00006 -1.00005 -1.00004 -1.00003 -1.00003
 (dLV/dLT)p        1.3004   1.2095   1.0019   1.0016   1.0013   1.0011   1.0010
 Cp, KJ/(KG)(K)    4.7203   4.0624   2.1731   2.1653   2.1586   2.1529   2.1479
 GAMMAs            1.1341   1.1397   1.1995   1.2002   1.2008   1.2014   1.2019
 SON VEL,M/SEC     1114.4   1080.8    879.3    873.2    867.7    862.5    857.7
 MACH NUMBER        0.000    1.000    2.879    2.924    2.965    3.004    3.040

 PERFORMANCE PARAMETERS

 Ae/At                      1.0000   6.2923   6.7075   7.1151   7.5157   7.9099
 CSTAR, M/SEC               1645.4   1645.4   1645.4   1645.4   1645.4   1645.4
 CF                         0.6568   1.5383   1.5516   1.5636   1.5745   1.5844
 Ivac, M/SEC                2029.1   2785.9   2802.0   2816.5   2829.7   2841.8
 Isp, M/SEC                 1080.8   2531.2   2553.1   2572.9   2590.7   2607.1


 MOLE FRACTIONS

 *CO              0.17185  0.16653  0.13795  0.13681  0.13572  0.13470  0.13372
 *CO2             0.16173  0.16986  0.20375  0.20490  0.20599  0.20702  0.20800
 *H               0.01009  0.00761  0.00017  0.00014  0.00012  0.00010  0.00009
 HO2              0.00001  0.00000  0.00000  0.00000  0.00000  0.00000  0.00000
 *H2              0.07910  0.07844  0.09999  0.10115  0.10224  0.10327  0.10426
 H2O              0.54615  0.55742  0.55807  0.55695  0.55589  0.55487  0.55390
 *O               0.00176  0.00092  0.00000  0.00000  0.00000  0.00000  0.00000
 *OH              0.02448  0.01659  0.00007  0.00005  0.00004  0.00003  0.00003
 *O2              0.00482  0.00263  0.00000  0.00000  0.00000  0.00000  0.00000

  * THERMODYNAMIC PROPERTIES FITTED TO 20000.K

    PRODUCTS WHICH WERE CONSIDERED BUT WHOSE MOLE FRACTIONS
    WERE LESS THAN 5.000000E-06 FOR ALL ASSIGNED CONDITIONS

 *C              *CH             CH2             CH3             CH2OH          
 CH3O            CH4             CH3OH           CH3OOH          COOH           
 *C2             C2H             C2H2,acetylene  C2H2,vinylidene CH2CO,ketene   
 O(CH)2O         HO(CO)2OH       C2H3,vinyl      CH3CO,acetyl    C2H4           
 C2H4O,ethylen-o CH3CHO,ethanal  CH3COOH         OHCH2COOH       C2H5           
 C2H6            C2H5OH          CH3OCH3         CH3O2CH3        C2O            
 *C3             C3H3,1-propynl  C3H3,2-propynl  C3H4,allene     C3H4,propyne   
 C3H4,cyclo-     C3H5,allyl      C3H6,propylene  C3H6,cyclo-     C3H6O,propylox 
 C3H6O,acetone   C3H6O,propanal  C3H7,n-propyl   C3H7,i-propyl   C3H8           
 C3H8O,1propanol C3H8O,2propanol C3O2            *C4             C4H2,butadiyne 
 C4H4,1,3-cyclo- C4H6,butadiene  C4H6,1butyne    C4H6,2butyne    C4H6,cyclo-    
 C4H8,1-butene   C4H8,cis2-buten C4H8,tr2-butene C4H8,isobutene  C4H8,cyclo-    
 (CH3COOH)2      C4H9,n-butyl    C4H9,i-butyl    C4H9,s-butyl    C4H9,t-butyl   
 C4H10,n-butane  C4H10,isobutane *C5             C5H6,1,3cyclo-  C5H8,cyclo-    
 C5H10,1-pentene C5H10,cyclo-    C5H11,pentyl    C5H11,t-pentyl  C5H12,n-pentane
 C5H12,i-pentane CH3C(CH3)2CH3   C6H2            C6H5,phenyl     C6H5O,phenoxy  
 C6H6            C6H5OH,phenol   C6H10,cyclo-    C6H12,1-hexene  C6H12,cyclo-   
 C6H13,n-hexyl   C6H14,n-hexane  C7H7,benzyl     C7H8            C7H8O,cresol-mx
 C7H14,1-heptene C7H15,n-heptyl  C7H16,n-heptane C7H16,2-methylh C8H8,styrene   
 C8H10,ethylbenz C8H16,1-octene  C8H17,n-octyl   C8H18,n-octane  C8H18,isooctane
 C9H19,n-nonyl   C10H8,naphthale C10H21,n-decyl  C12H9,o-bipheny C12H10,biphenyl
 HCO             HCCO            HCHO,formaldehy HCOOH           H2O2           
 (HCOOH)2        O3              C(gr)           H2O(cr)         H2O(L)         

 NOTE. WEIGHT FRACTION OF FUEL IN TOTAL FUELS AND OF OXIDANT IN TOTAL OXIDANTS






 POINT ITN      T            C           H           O 
   1    3    2976.817     -16.093     -10.234     -16.375
 Pinf/Pt = 1.731872
   2    4    2808.314     -16.254     -10.409     -16.845
 Pinf/Pt = 1.735859
   2    2    2807.603     -16.255     -10.410     -16.847
   3    5    2034.720     -15.763     -10.978     -20.478
   4    3    1976.123     -15.640     -11.013     -20.890
   5    3    1927.381     -15.528     -11.041     -21.253
   6    3    1885.804     -15.424     -11.065     -21.580
   7    3    1849.653     -15.329     -11.087     -21.876
   8    3    1817.746     -15.240     -11.106     -22.148





              THEORETICAL ROCKET PERFORMANCE ASSUMING EQUILIBRIUM

           COMPOSITION DURING EXPANSION FROM INFINITE AREA COMBUSTOR

 Pin =   261.1 PSIA
 CASE = ethanol-75-lox 

             REACTANT                    WT FRACTION      ENERGY      TEMP
                                          (SEE NOTE)     KJ/KG-MOL      K  
 FUEL        C2H5OH(L)                    0.7500000   -277526.835    298.000
 FUEL        H2O(L)                       0.2500000   -285841.390    298.000
 OXIDANT     O2(L)                        1.0000000    -12979.000     90.170

 O/F=    1.20000  %FUEL= 45.454545  R,EQ.RATIO= 1.215652  PHI,EQ.RATIO= 1.302361

                 CHAMBER   THROAT     EXIT     EXIT     EXIT     EXIT     EXIT     EXIT
 Pinf/P            1.0000   1.7359   18.480   22.175   25.871   29.567   33.263   36.959
 P, BAR            18.000   10.370  0.97405  0.81171  0.69575  0.60878  0.54114  0.48703
 T, K             2976.82  2807.60  2034.72  1976.12  1927.38  1885.80  1849.65  1817.75
 RHO, KG/CU M    1.6405 0 1.0103 0 1.3287-1 1.1403-1 1.0022-1 8.9632-2 8.1234-2 7.4397-2
 H, KJ/KG        -4077.98 -4663.48 -6740.89 -6872.60 -6980.97 -7072.67 -7151.89 -7221.47
 U, KJ/KG        -5175.22 -5689.88 -7473.97 -7584.45 -7675.19 -7751.87 -7818.04 -7876.10
 G, KJ/KG        -39709.6 -38269.7 -31095.9 -30526.2 -30051.2 -29645.2 -29291.7 -28979.4
 S, KJ/(KG)(K)    11.9697  11.9697  11.9697  11.9697  11.9697  11.9697  11.9697  11.9697

 M, (1/n)          22.557   22.743   23.078   23.081   23.084   23.085   23.086   23.087
 (dLV/dLP)t      -1.01344 -1.00876 -1.00028 -1.00020 -1.00014 -1.00011 -1.00009 -1.00007
 (dLV/dLT)p        1.2899   1.2006   1.0084   1.0060   1.0045   1.0034   1.0027   1.0022
 Cp, KJ/(KG)(K)    4.6300   3.9840   2.2817   2.2473   2.2232   2.2053   2.1915   2.1805
 GAMMAs            1.1351   1.1409   1.1909   1.1934   1.1952   1.1966   1.1978   1.1988
 SON VEL,M/SEC     1116.0   1082.1    934.4    921.7    910.9    901.5    893.3    885.9
 MACH NUMBER        0.000    1.000    2.470    2.565    2.645    2.715    2.776    2.830

 PERFORMANCE PARAMETERS

 Ae/At                     1.00000   3.5653   4.0554   4.5271   4.9838   5.4277   5.8606
 CSTAR, M/SEC               1646.5   1646.5   1646.5   1646.5   1646.5   1646.5   1646.5
 CF                         0.6572   1.4016   1.4359   1.4635   1.4864   1.5059   1.5229
 Ivac, M/SEC                2030.6   2625.4   2665.3   2697.7   2724.8   2748.1   2768.5
 Isp, M/SEC                 1082.1   2307.8   2364.2   2409.6   2447.3   2479.5   2507.4


 MOLE FRACTIONS

 *CO              0.17167  0.16641  0.14694  0.14507  0.14338  0.14185  0.14045  0.13914
 *CO2             0.16218  0.17019  0.19461  0.19654  0.19826  0.19981  0.20124  0.20255
 *H               0.00974  0.00731  0.00063  0.00047  0.00036  0.00028  0.00023  0.00019
 HO2              0.00001  0.00000  0.00000  0.00000  0.00000  0.00000  0.00000  0.00000
 *H2              0.07880  0.07822  0.09088  0.09279  0.09450  0.09605  0.09747  0.09879
 H2O              0.54742  0.55844  0.56647  0.56483  0.56329  0.56185  0.56050  0.55924
 *O               0.00167  0.00086  0.00000  0.00000  0.00000  0.00000  0.00000  0.00000
 *OH              0.02392  0.01609  0.00047  0.00031  0.00021  0.00015  0.00011  0.00008
 *O2              0.00459  0.00247  0.00001  0.00000  0.00000  0.00000  0.00000  0.00000

  * THERMODYNAMIC PROPERTIES FITTED TO 20000.K

    PRODUCTS WHICH WERE CONSIDERED BUT WHOSE MOLE FRACTIONS
    WERE LESS THAN 5.000000E-06 FOR ALL ASSIGNED CONDITIONS

 *C              *CH             CH2             CH3             CH2OH          
 CH3O            CH4             CH3OH           CH3OOH          COOH           
 *C2             C2H             C2H2,acetylene  C2H2,vinylidene CH2CO,ketene   
 O(CH)2O         HO(CO)2OH       C2H3,vinyl      CH3CO,acetyl    C2H4           
 C2H4O,ethylen-o CH3CHO,ethanal  CH3COOH         OHCH2COOH       C2H5           
 C2H6            C2H5OH          CH3OCH3         CH3O2CH3        C2O            
 *C3             C3H3,1-propynl  C3H3,2-propynl  C3H4,allene     C3H4,propyne   
 C3H4,cyclo-     C3H5,allyl      C3H6,propylene  C3H6,cyclo-     C3H6O,propylox 
 C3H6O,acetone   C3H6O,propanal  C3H7,n-propyl   C3H7,i-propyl   C3H8           
 C3H8O,1propanol C3H8O,2propanol C3O2            *C4             C4H2,butadiyne 
 C4H4,1,3-cyclo- C4H6,butadiene  C4H6,1butyne    C4H6,2butyne    C4H6,cyclo-    
 C4H8,1-butene   C4H8,cis2-buten C4H8,tr2-butene C4H8,isobutene  C4H8,cyclo-    
 (CH3COOH)2      C4H9,n-butyl    C4H9,i-butyl    C4H9,s-butyl    C4H9,t-butyl   
 C4H10,n-butane  C4H10,isobutane *C5             C5H6,1,3cyclo-  C5H8,cyclo-    
 C5H10,1-pentene C5H10,cyclo-    C5H11,pentyl    C5H11,t-pentyl  C5H12,n-pentane
 C5H12,i-pentane CH3C(CH3)2CH3   C6H2            C6H5,phenyl     C6H5O,phenoxy  
 C6H6            C6H5OH,phenol   C6H10,cyclo-    C6H12,1-hexene  C6H12,cyclo-   
 C6H13,n-hexyl   C6H14,n-hexane  C7H7,benzyl     C7H8            C7H8O,cresol-mx
 C7H14,1-heptene C7H15,n-heptyl  C7H16,n-heptane C7H16,2-methylh C8H8,styrene   
 C8H10,ethylbenz C8H16,1-octene  C8H17,n-octyl   C8H18,n-octane  C8H18,isooctane
 C9H19,n-nonyl   C10H8,naphthale C10H21,n-decyl  C12H9,o-bipheny C12H10,biphenyl
 HCO             HCCO            HCHO,formaldehy HCOOH           H2O2           
 (HCOOH)2        O3              C(gr)           H2O(cr)         H2O(L)         

 NOTE. WEIGHT FRACTION OF FUEL IN TOTAL FUELS AND OF OXIDANT IN TOTAL OXIDANTS





   3    3    1789.241     -15.156     -11.123     -22.400
   4    3    1763.521     -15.078     -11.138     -22.634
   5    3    1740.119     -15.003     -11.152     -22.854
   6    3    1718.674     -14.933     -11.166     -23.061
   7    3    1698.903     -14.866     -11.178     -23.257





              THEORETICAL ROCKET PERFORMANCE ASSUMING EQUILIBRIUM

           COMPOSITION DURING EXPANSION FROM INFINITE AREA COMBUSTOR

 Pin =   261.1 PSIA
 CASE = ethanol-75-lox 

             REACTANT                    WT FRACTION      ENERGY      TEMP
                                          (SEE NOTE)     KJ/KG-MOL      K  
 FUEL        C2H5OH(L)                    0.7500000   -277526.835    298.000
 FUEL        H2O(L)                       0.2500000   -285841.390    298.000
 OXIDANT     O2(L)                        1.0000000    -12979.000     90.170

 O/F=    1.20000  %FUEL= 45.454545  R,EQ.RATIO= 1.215652  PHI,EQ.RATIO= 1.302361

                 CHAMBER   THROAT     EXIT     EXIT     EXIT     EXIT     EXIT
 Pinf/P            1.0000   1.7359   40.655   44.351   48.047   51.743   55.439
 P, BAR            18.000   10.370  0.44275  0.40585  0.37463  0.34788  0.32468
 T, K             2976.82  2807.60  1789.24  1763.52  1740.12  1718.67  1698.90
 RHO, KG/CU M    1.6405 0 1.0103 0 6.8713-2 6.3906-2 5.9785-2 5.6208-2 5.3072-2
 H, KJ/KG        -4077.98 -4663.48 -7283.37 -7339.04 -7389.53 -7435.68 -7478.14
 U, KJ/KG        -5175.22 -5689.88 -7927.72 -7974.11 -8016.17 -8054.59 -8089.92
 G, KJ/KG        -39709.6 -38269.7 -28700.1 -28447.9 -28218.2 -28007.7 -27813.5
 S, KJ/(KG)(K)    11.9697  11.9697  11.9697  11.9697  11.9697  11.9697  11.9697

 M, (1/n)          22.557   22.743   23.088   23.088   23.089   23.089   23.089
 (dLV/dLP)t      -1.01344 -1.00876 -1.00006 -1.00005 -1.00004 -1.00003 -1.00003
 (dLV/dLT)p        1.2899   1.2006   1.0018   1.0015   1.0013   1.0011   1.0009
 Cp, KJ/(KG)(K)    4.6300   3.9840   2.1715   2.1639   2.1575   2.1519   2.1470
 GAMMAs            1.1351   1.1409   1.1996   1.2003   1.2009   1.2015   1.2019
 SON VEL,M/SEC     1116.0   1082.1    879.2    873.1    867.5    862.3    857.5
 MACH NUMBER        0.000    1.000    2.880    2.925    2.967    3.005    3.041

 PERFORMANCE PARAMETERS

 Ae/At                     1.00000   6.2839   6.6985   7.1055   7.5056   7.8994
 CSTAR, M/SEC               1646.5   1646.5   1646.5   1646.5   1646.5   1646.5
 CF                         0.6572   1.5378   1.5511   1.5631   1.5739   1.5838
 Ivac, M/SEC                2030.6   2786.4   2802.5   2817.0   2830.2   2842.3
 Isp, M/SEC                 1082.1   2532.0   2553.8   2573.5   2591.4   2607.7


 MOLE FRACTIONS

 *CO              0.17167  0.16641  0.13792  0.13677  0.13569  0.13466  0.13368
 *CO2             0.16218  0.17019  0.20378  0.20494  0.20603  0.20706  0.20804
 *H               0.00974  0.00731  0.00016  0.00013  0.00011  0.00010  0.00008
 HO2              0.00001  0.00000  0.00000  0.00000  0.00000  0.00000  0.00000
 *H2              0.07880  0.07822  0.10003  0.10119  0.10228  0.10331  0.10430
 H2O              0.54742  0.55844  0.55805  0.55692  0.55586  0.55484  0.55387
 *O               0.00167  0.00086  0.00000  0.00000  0.00000  0.00000  0.00000
 *OH              0.02392  0.01609  0.00006  0.00005  0.00004  0.00003  0.00003
 *O2              0.00459  0.00247  0.00000  0.00000  0.00000  0.00000  0.00000

  * THERMODYNAMIC PROPERTIES FITTED TO 20000.K

    PRODUCTS WHICH WERE CONSIDERED BUT WHOSE MOLE FRACTIONS
    WERE LESS THAN 5.000000E-06 FOR ALL ASSIGNED CONDITIONS

 *C              *CH             CH2             CH3             CH2OH          
 CH3O            CH4             CH3OH           CH3OOH          COOH           
 *C2             C2H             C2H2,acetylene  C2H2,vinylidene CH2CO,ketene   
 O(CH)2O         HO(CO)2OH       C2H3,vinyl      CH3CO,acetyl    C2H4           
 C2H4O,ethylen-o CH3CHO,ethanal  CH3COOH         OHCH2COOH       C2H5           
 C2H6            C2H5OH          CH3OCH3         CH3O2CH3        C2O            
 *C3             C3H3,1-propynl  C3H3,2-propynl  C3H4,allene     C3H4,propyne   
 C3H4,cyclo-     C3H5,allyl      C3H6,propylene  C3H6,cyclo-     C3H6O,propylox 
 C3H6O,acetone   C3H6O,propanal  C3H7,n-propyl   C3H7,i-propyl   C3H8           
 C3H8O,1propanol C3H8O,2propanol C3O2            *C4             C4H2,butadiyne 
 C4H4,1,3-cyclo- C4H6,butadiene  C4H6,1butyne    C4H6,2butyne    C4H6,cyclo-    
 C4H8,1-butene   C4H8,cis2-buten C4H8,tr2-butene C4H8,isobutene  C4H8,cyclo-    
 (CH3COOH)2      C4H9,n-butyl    C4H9,i-butyl    C4H9,s-butyl    C4H9,t-butyl   
 C4H10,n-butane  C4H10,isobutane *C5             C5H6,1,3cyclo-  C5H8,cyclo-    
 C5H10,1-pentene C5H10,cyclo-    C5H11,pentyl    C5H11,t-pentyl  C5H12,n-pentane
 C5H12,i-pentane CH3C(CH3)2CH3   C6H2            C6H5,phenyl     C6H5O,phenoxy  
 C6H6            C6H5OH,phenol   C6H10,cyclo-    C6H12,1-hexene  C6H12,cyclo-   
 C6H13,n-hexyl   C6H14,n-hexane  C7H7,benzyl     C7H8            C7H8O,cresol-mx
 C7H14,1-heptene C7H15,n-heptyl  C7H16,n-heptane C7H16,2-methylh C8H8,styrene   
 C8H10,ethylbenz C8H16,1-octene  C8H17,n-octyl   C8H18,n-octane  C8H18,isooctane
 C9H19,n-nonyl   C10H8,naphthale C10H21,n-decyl  C12H9,o-bipheny C12H10,biphenyl
 HCO             HCCO            HCHO,formaldehy HCOOH           H2O2           
 (HCOOH)2        O3              C(gr)           H2O(cr)         H2O(L)         

 NOTE. WEIGHT FRACTION OF FUEL IN TOTAL FUELS AND OF OXIDANT IN TOTAL OXIDANTS






 POINT ITN      T            C           H           O 
   1    3    2984.006     -16.012     -10.187     -16.350
 Pinf/Pt = 1.732413
   2    4    2813.389     -16.168     -10.361     -16.825
 Pinf/Pt = 1.736520
   2    2    2812.648     -16.168     -10.362     -16.827
   3    5    2034.227     -15.655     -10.925     -20.481
   4    3    1975.554     -15.531     -10.959     -20.894
   5    3    1926.768     -15.419     -10.988     -21.258
   6    3    1885.164     -15.315     -11.012     -21.585
   7    3    1848.998     -15.219     -11.033     -21.881
   8    3    1817.081     -15.130     -11.052     -22.154





              THEORETICAL ROCKET PERFORMANCE ASSUMING EQUILIBRIUM

           COMPOSITION DURING EXPANSION FROM INFINITE AREA COMBUSTOR

 Pin =   290.1 PSIA
 CASE = ethanol-75-lox 

             REACTANT                    WT FRACTION      ENERGY      TEMP
                                          (SEE NOTE)     KJ/KG-MOL      K  
 FUEL        C2H5OH(L)                    0.7500000   -277526.835    298.000
 FUEL        H2O(L)                       0.2500000   -285841.390    298.000
 OXIDANT     O2(L)                        1.0000000    -12979.000     90.170

 O/F=    1.20000  %FUEL= 45.454545  R,EQ.RATIO= 1.215652  PHI,EQ.RATIO= 1.302361

                 CHAMBER   THROAT     EXIT     EXIT     EXIT     EXIT     EXIT     EXIT
 Pinf/P            1.0000   1.7365   18.480   22.175   25.871   29.567   33.263   36.959
 P, BAR            20.000   11.517   1.0823  0.90190  0.77306  0.67642  0.60127  0.54114
 T, K             2984.01  2812.65  2034.23  1975.55  1926.77  1885.16  1849.00  1817.08
 RHO, KG/CU M    1.8196 0 1.1207 0 1.4767-1 1.2674-1 1.1139-1 9.9627-2 9.0293-2 8.2694-2
 H, KJ/KG        -4077.98 -4664.75 -6742.64 -6874.32 -6982.65 -7074.32 -7153.52 -7223.07
 U, KJ/KG        -5177.09 -5692.44 -7475.52 -7585.95 -7676.64 -7753.28 -7819.42 -7877.46
 G, KJ/KG        -39679.8 -38222.1 -31012.8 -30444.4 -29970.7 -29566.0 -29213.7 -28902.5
 S, KJ/(KG)(K)    11.9309  11.9309  11.9309  11.9309  11.9309  11.9309  11.9309  11.9309

 M, (1/n)          22.573   22.756   23.078   23.082   23.084   23.086   23.087   23.087
 (dLV/dLP)t      -1.01303 -1.00843 -1.00027 -1.00019 -1.00014 -1.00010 -1.00008 -1.00006
 (dLV/dLT)p        1.2806   1.1928   1.0079   1.0057   1.0042   1.0032   1.0026   1.0021
 Cp, KJ/(KG)(K)    4.5509   3.9159   2.2764   2.2434   2.2202   2.2030   2.1896   2.1790
 GAMMAs            1.1360   1.1420   1.1912   1.1936   1.1954   1.1968   1.1979   1.1989
 SON VEL,M/SEC     1117.4   1083.3    934.4    921.6    910.8    901.4    893.2    885.7
 MACH NUMBER        0.000    1.000    2.471    2.566    2.646    2.716    2.777    2.832

 PERFORMANCE PARAMETERS

 Ae/At                      1.0000   3.5612   4.0507   4.5219   4.9780   5.4214   5.8538
 CSTAR, M/SEC               1647.4   1647.4   1647.4   1647.4   1647.4   1647.4   1647.4
 CF                         0.6576   1.4014   1.4356   1.4631   1.4860   1.5055   1.5225
 Ivac, M/SEC                2032.0   2626.0   2665.8   2698.2   2725.3   2748.6   2768.9
 Isp, M/SEC                 1083.3   2308.5   2364.9   2410.3   2448.0   2480.1   2508.0


 MOLE FRACTIONS

 *CO              0.17151  0.16631  0.14693  0.14505  0.14336  0.14183  0.14042  0.13911
 *CO2             0.16257  0.17048  0.19463  0.19656  0.19828  0.19984  0.20126  0.20258
 *H               0.00943  0.00705  0.00059  0.00044  0.00034  0.00027  0.00022  0.00018
 HO2              0.00001  0.00000  0.00000  0.00000  0.00000  0.00000  0.00000  0.00000
 *H2              0.07854  0.07803  0.09090  0.09281  0.09452  0.09608  0.09750  0.09883
 H2O              0.54854  0.55933  0.56650  0.56484  0.56329  0.56184  0.56049  0.55922
 *O               0.00159  0.00081  0.00000  0.00000  0.00000  0.00000  0.00000  0.00000
 *OH              0.02342  0.01565  0.00044  0.00029  0.00020  0.00014  0.00010  0.00008
 *O2              0.00438  0.00233  0.00000  0.00000  0.00000  0.00000  0.00000  0.00000

  * THERMODYNAMIC PROPERTIES FITTED TO 20000.K

    PRODUCTS WHICH WERE CONSIDERED BUT WHOSE MOLE FRACTIONS
    WERE LESS THAN 5.000000E-06 FOR ALL ASSIGNED CONDITIONS

 *C              *CH             CH2             CH3             CH2OH          
 CH3O            CH4             CH3OH           CH3OOH          COOH           
 *C2             C2H             C2H2,acetylene  C2H2,vinylidene CH2CO,ketene   
 O(CH)2O         HO(CO)2OH       C2H3,vinyl      CH3CO,acetyl    C2H4           
 C2H4O,ethylen-o CH3CHO,ethanal  CH3COOH         OHCH2COOH       C2H5           
 C2H6            C2H5OH          CH3OCH3         CH3O2CH3        C2O            
 *C3             C3H3,1-propynl  C3H3,2-propynl  C3H4,allene     C3H4,propyne   
 C3H4,cyclo-     C3H5,allyl      C3H6,propylene  C3H6,cyclo-     C3H6O,propylox 
 C3H6O,acetone   C3H6O,propanal  C3H7,n-propyl   C3H7,i-propyl   C3H8           
 C3H8O,1propanol C3H8O,2propanol C3O2            *C4             C4H2,butadiyne 
 C4H4,1,3-cyclo- C4H6,butadiene  C4H6,1butyne    C4H6,2butyne    C4H6,cyclo-    
 C4H8,1-butene   C4H8,cis2-buten C4H8,tr2-butene C4H8,isobutene  C4H8,cyclo-    
 (CH3COOH)2      C4H9,n-butyl    C4H9,i-butyl    C4H9,s-butyl    C4H9,t-butyl   
 C4H10,n-butane  C4H10,isobutane *C5             C5H6,1,3cyclo-  C5H8,cyclo-    
 C5H10,1-pentene C5H10,cyclo-    C5H11,pentyl    C5H11,t-pentyl  C5H12,n-pentane
 C5H12,i-pentane CH3C(CH3)2CH3   C6H2            C6H5,phenyl     C6H5O,phenoxy  
 C6H6            C6H5OH,phenol   C6H10,cyclo-    C6H12,1-hexene  C6H12,cyclo-   
 C6H13,n-hexyl   C6H14,n-hexane  C7H7,benzyl     C7H8            C7H8O,cresol-mx
 C7H14,1-heptene C7H15,n-heptyl  C7H16,n-heptane C7H16,2-methylh C8H8,styrene   
 C8H10,ethylbenz C8H16,1-octene  C8H17,n-octyl   C8H18,n-octane  C8H18,isooctane
 C9H19,n-nonyl   C10H8,naphthale C10H21,n-decyl  C12H9,o-bipheny C12H10,biphenyl
 HCO             HCCO            HCHO,formaldehy HCOOH           H2O2           
 (HCOOH)2        O3              C(gr)           H2O(cr)         H2O(L)         

 NOTE. WEIGHT FRACTION OF FUEL IN TOTAL FUELS AND OF OXIDANT IN TOTAL OXIDANTS





   3    3    1788.572     -15.047     -11.069     -22.406
   4    3    1762.849     -14.968     -11.085     -22.641
   5    3    1739.446     -14.893     -11.099     -22.861
   6    3    1718.002     -14.823     -11.112     -23.068
   7    3    1698.232     -14.756     -11.124     -23.264





              THEORETICAL ROCKET PERFORMANCE ASSUMING EQUILIBRIUM

           COMPOSITION DURING EXPANSION FROM INFINITE AREA COMBUSTOR

 Pin =   290.1 PSIA
 CASE = ethanol-75-lox 

             REACTANT                    WT FRACTION      ENERGY      TEMP
                                          (SEE NOTE)     KJ/KG-MOL      K  
 FUEL        C2H5OH(L)                    0.7500000   -277526.835    298.000
 FUEL        H2O(L)                       0.2500000   -285841.390    298.000
 OXIDANT     O2(L)                        1.0000000    -12979.000     90.170

 O/F=    1.20000  %FUEL= 45.454545  R,EQ.RATIO= 1.215652  PHI,EQ.RATIO= 1.302361

                 CHAMBER   THROAT     EXIT     EXIT     EXIT     EXIT     EXIT
 Pinf/P            1.0000   1.7365   40.655   44.351   48.047   51.743   55.439
 P, BAR            20.000   11.517  0.49194  0.45095  0.41626  0.38653  0.36076
 T, K             2984.01  2812.65  1788.57  1762.85  1739.45  1718.00  1698.23
 RHO, KG/CU M    1.8196 0 1.1207 0 7.6376-2 7.1035-2 6.6454-2 6.2478-2 5.8992-2
 H, KJ/KG        -4077.98 -4664.75 -7284.95 -7340.59 -7391.06 -7437.20 -7479.63
 U, KJ/KG        -5177.09 -5692.44 -7929.05 -7975.42 -8017.46 -8055.86 -8091.17
 G, KJ/KG        -39679.8 -38222.1 -28624.2 -28372.9 -28144.2 -27934.5 -27741.0
 S, KJ/(KG)(K)    11.9309  11.9309  11.9309  11.9309  11.9309  11.9309  11.9309

 M, (1/n)          22.573   22.756   23.088   23.088   23.089   23.089   23.089
 (dLV/dLP)t      -1.01303 -1.00843 -1.00005 -1.00004 -1.00004 -1.00003 -1.00003
 (dLV/dLT)p        1.2806   1.1928   1.0017   1.0014   1.0012   1.0010   1.0009
 Cp, KJ/(KG)(K)    4.5509   3.9159   2.1702   2.1628   2.1565   2.1510   2.1462
 GAMMAs            1.1360   1.1420   1.1997   1.2004   1.2010   1.2015   1.2020
 SON VEL,M/SEC     1117.4   1083.3    879.0    872.9    867.3    862.2    857.4
 MACH NUMBER        0.000    1.000    2.881    2.926    2.968    3.006    3.042

 PERFORMANCE PARAMETERS

 Ae/At                      1.0000   6.2765   6.6907   7.0973   7.4969   7.8902
 CSTAR, M/SEC               1647.4   1647.4   1647.4   1647.4   1647.4   1647.4
 CF                         0.6576   1.5374   1.5506   1.5626   1.5734   1.5833
 Ivac, M/SEC                2032.0   2786.9   2803.0   2817.5   2830.7   2842.8
 Isp, M/SEC                 1083.3   2532.6   2554.4   2574.1   2592.0   2608.3


 MOLE FRACTIONS

 *CO              0.17151  0.16631  0.13789  0.13674  0.13566  0.13463  0.13365
 *CO2             0.16257  0.17048  0.20381  0.20497  0.20606  0.20709  0.20808
 *H               0.00943  0.00705  0.00015  0.00012  0.00011  0.00009  0.00008
 HO2              0.00001  0.00000  0.00000  0.00000  0.00000  0.00000  0.00000
 *H2              0.07854  0.07803  0.10006  0.10122  0.10231  0.10335  0.10433
 H2O              0.54854  0.55933  0.55803  0.55690  0.55583  0.55481  0.55384
 *O               0.00159  0.00081  0.00000  0.00000  0.00000  0.00000  0.00000
 *OH              0.02342  0.01565  0.00006  0.00005  0.00004  0.00003  0.00002
 *O2              0.00438  0.00233  0.00000  0.00000  0.00000  0.00000  0.00000

  * THERMODYNAMIC PROPERTIES FITTED TO 20000.K

    PRODUCTS WHICH WERE CONSIDERED BUT WHOSE MOLE FRACTIONS
    WERE LESS THAN 5.000000E-06 FOR ALL ASSIGNED CONDITIONS

 *C              *CH             CH2             CH3             CH2OH          
 CH3O            CH4             CH3OH           CH3OOH          COOH           
 *C2             C2H             C2H2,acetylene  C2H2,vinylidene CH2CO,ketene   
 O(CH)2O         HO(CO)2OH       C2H3,vinyl      CH3CO,acetyl    C2H4           
 C2H4O,ethylen-o CH3CHO,ethanal  CH3COOH         OHCH2COOH       C2H5           
 C2H6            C2H5OH          CH3OCH3         CH3O2CH3        C2O            
 *C3             C3H3,1-propynl  C3H3,2-propynl  C3H4,allene     C3H4,propyne   
 C3H4,cyclo-     C3H5,allyl      C3H6,propylene  C3H6,cyclo-     C3H6O,propylox 
 C3H6O,acetone   C3H6O,propanal  C3H7,n-propyl   C3H7,i-propyl   C3H8           
 C3H8O,1propanol C3H8O,2propanol C3O2            *C4             C4H2,butadiyne 
 C4H4,1,3-cyclo- C4H6,butadiene  C4H6,1butyne    C4H6,2butyne    C4H6,cyclo-    
 C4H8,1-butene   C4H8,cis2-buten C4H8,tr2-butene C4H8,isobutene  C4H8,cyclo-    
 (CH3COOH)2      C4H9,n-butyl    C4H9,i-butyl    C4H9,s-butyl    C4H9,t-butyl   
 C4H10,n-butane  C4H10,isobutane *C5             C5H6,1,3cyclo-  C5H8,cyclo-    
 C5H10,1-pentene C5H10,cyclo-    C5H11,pentyl    C5H11,t-pentyl  C5H12,n-pentane
 C5H12,i-pentane CH3C(CH3)2CH3   C6H2            C6H5,phenyl     C6H5O,phenoxy  
 C6H6            C6H5OH,phenol   C6H10,cyclo-    C6H12,1-hexene  C6H12,cyclo-   
 C6H13,n-hexyl   C6H14,n-hexane  C7H7,benzyl     C7H8            C7H8O,cresol-mx
 C7H14,1-heptene C7H15,n-heptyl  C7H16,n-heptane C7H16,2-methylh C8H8,styrene   
 C8H10,ethylbenz C8H16,1-octene  C8H17,n-octyl   C8H18,n-octane  C8H18,isooctane
 C9H19,n-nonyl   C10H8,naphthale C10H21,n-decyl  C12H9,o-bipheny C12H10,biphenyl
 HCO             HCCO            HCHO,formaldehy HCOOH           H2O2           
 (HCOOH)2        O3              C(gr)           H2O(cr)         H2O(L)         

 NOTE. WEIGHT FRACTION OF FUEL IN TOTAL FUELS AND OF OXIDANT IN TOTAL OXIDANTS






 POINT ITN      T            C           H           O 
   1    3    2990.425     -15.938     -10.145     -16.327
 Pinf/Pt = 1.732907
   2    4    2817.880     -16.089     -10.317     -16.807
 Pinf/Pt = 1.737120
   2    2    2817.111     -16.090     -10.318     -16.810
   3    5    2033.788     -15.557     -10.877     -20.484
   4    3    1975.049     -15.433     -10.911     -20.898
   5    3    1926.225     -15.320     -10.939     -21.262
   6    3    1884.599     -15.217     -10.964     -21.589
   7    3    1848.420     -15.121     -10.985     -21.886
   8    3    1816.496     -15.031     -11.004     -22.159





              THEORETICAL ROCKET PERFORMANCE ASSUMING EQUILIBRIUM

           COMPOSITION DURING EXPANSION FROM INFINITE AREA COMBUSTOR

 Pin =   319.1 PSIA
 CASE = ethanol-75-lox 

             REACTANT                    WT FRACTION      ENERGY      TEMP
                                          (SEE NOTE)     KJ/KG-MOL      K  
 FUEL        C2H5OH(L)                    0.7500000   -277526.835    298.000
 FUEL        H2O(L)                       0.2500000   -285841.390    298.000
 OXIDANT     O2(L)                        1.0000000    -12979.000     90.170

 O/F=    1.20000  %FUEL= 45.454545  R,EQ.RATIO= 1.215652  PHI,EQ.RATIO= 1.302361

                 CHAMBER   THROAT     EXIT     EXIT     EXIT     EXIT     EXIT     EXIT
 Pinf/P            1.0000   1.7371   18.480   22.175   25.871   29.567   33.263   36.959
 P, BAR            22.000   12.665   1.1905  0.99209  0.85036  0.74407  0.66139  0.59525
 T, K             2990.42  2817.11  2033.79  1975.05  1926.23  1884.60  1848.42  1816.50
 RHO, KG/CU M    1.9986 0 1.2310 0 1.6248-1 1.3945-1 1.2257-1 1.0962-1 9.9354-2 9.0993-2
 H, KJ/KG        -4077.98 -4665.90 -6744.18 -6875.82 -6984.13 -7075.76 -7154.94 -7224.47
 U, KJ/KG        -5178.76 -5694.71 -7476.89 -7587.26 -7677.91 -7754.51 -7820.63 -7878.64
 G, KJ/KG        -39651.4 -38177.7 -30937.7 -30370.6 -29898.1 -29494.6 -29143.4 -28833.1
 S, KJ/(KG)(K)    11.8958  11.8958  11.8958  11.8958  11.8958  11.8958  11.8958  11.8958

 M, (1/n)          22.587   22.767   23.079   23.082   23.084   23.086   23.087   23.088
 (dLV/dLP)t      -1.01267 -1.00814 -1.00025 -1.00018 -1.00013 -1.00010 -1.00008 -1.00006
 (dLV/dLT)p        1.2723   1.1859   1.0075   1.0054   1.0040   1.0031   1.0024   1.0020
 Cp, KJ/(KG)(K)    4.4807   3.8560   2.2719   2.2401   2.2177   2.2010   2.1880   2.1776
 GAMMAs            1.1368   1.1429   1.1915   1.1938   1.1956   1.1970   1.1981   1.1990
 SON VEL,M/SEC     1118.6   1084.4    934.4    921.6    910.8    901.3    893.1    885.6
 MACH NUMBER        0.000    1.000    2.471    2.567    2.647    2.717    2.778    2.833

 PERFORMANCE PARAMETERS

 Ae/At                      1.0000   3.5576   4.0466   4.5173   4.9729   5.4158   5.8478
 CSTAR, M/SEC               1648.1   1648.1   1648.1   1648.1   1648.1   1648.1   1648.1
 CF                         0.6579   1.4011   1.4353   1.4628   1.4857   1.5052   1.5221
 Ivac, M/SEC                2033.1   2626.5   2666.3   2698.6   2725.8   2749.1   2769.4
 Isp, M/SEC                 1084.4   2309.2   2365.5   2410.9   2448.6   2480.7   2508.6


 MOLE FRACTIONS

 *CO              0.17136  0.16621  0.14692  0.14504  0.14335  0.14181  0.14040  0.13909
 *CO2             0.16293  0.17074  0.19465  0.19658  0.19830  0.19986  0.20129  0.20261
 *H               0.00916  0.00682  0.00056  0.00042  0.00032  0.00025  0.00020  0.00017
 HO2              0.00001  0.00000  0.00000  0.00000  0.00000  0.00000  0.00000  0.00000
 *H2              0.07830  0.07787  0.09092  0.09283  0.09455  0.09610  0.09753  0.09885
 H2O              0.54954  0.56013  0.56652  0.56485  0.56329  0.56184  0.56048  0.55921
 *O               0.00151  0.00077  0.00000  0.00000  0.00000  0.00000  0.00000  0.00000
 *OH              0.02297  0.01526  0.00042  0.00028  0.00019  0.00013  0.00010  0.00007
 *O2              0.00420  0.00220  0.00000  0.00000  0.00000  0.00000  0.00000  0.00000

  * THERMODYNAMIC PROPERTIES FITTED TO 20000.K

    PRODUCTS WHICH WERE CONSIDERED BUT WHOSE MOLE FRACTIONS
    WERE LESS THAN 5.000000E-06 FOR ALL ASSIGNED CONDITIONS

 *C              *CH             CH2             CH3             CH2OH          
 CH3O            CH4             CH3OH           CH3OOH          COOH           
 *C2             C2H             C2H2,acetylene  C2H2,vinylidene CH2CO,ketene   
 O(CH)2O         HO(CO)2OH       C2H3,vinyl      CH3CO,acetyl    C2H4           
 C2H4O,ethylen-o CH3CHO,ethanal  CH3COOH         OHCH2COOH       C2H5           
 C2H6            C2H5OH          CH3OCH3         CH3O2CH3        C2O            
[...]
 *H2              0.03006  0.02680  0.01330  0.01233  0.01152  0.01084  0.01024  0.00971
 H2O              0.53266  0.54760  0.60475  0.60848  0.61154  0.61412  0.61634  0.61829
 H2O2             0.00001  0.00001  0.00000  0.00000  0.00000  0.00000  0.00000  0.00000
 *O               0.00815  0.00650  0.00173  0.00151  0.00134  0.00120  0.00109  0.00100
 *OH              0.05579  0.04776  0.01951  0.01784  0.01648  0.01535  0.01439  0.01355
 *O2              0.05660  0.05247  0.03228  0.03072  0.02940  0.02828  0.02730  0.02644

  * THERMODYNAMIC PROPERTIES FITTED TO 20000.K

    PRODUCTS WHICH WERE CONSIDERED BUT WHOSE MOLE FRACTIONS
    WERE LESS THAN 5.000000E-06 FOR ALL ASSIGNED CONDITIONS

 *C              *CH             CH2             CH3             CH2OH          
 CH3O            CH4             CH3OH           CH3OOH          COOH           
 *C2             C2H             C2H2,acetylene  C2H2,vinylidene CH2CO,ketene   
 O(CH)2O         HO(CO)2OH       C2H3,vinyl      CH3CO,acetyl    C2H4           
 C2H4O,ethylen-o CH3CHO,ethanal  CH3COOH         OHCH2COOH       C2H5           
 C2H6            C2H5OH          CH3OCH3         CH3O2CH3        C2O            
 *C3             C3H3,1-propynl  C3H3,2-propynl  C3H4,allene     C3H4,propyne   
 C3H4,cyclo-     C3H5,allyl      C3H6,propylene  C3H6,cyclo-     C3H6O,propylox 
 C3H6O,acetone   C3H6O,propanal  C3H7,n-propyl   C3H7,i-propyl   C3H8           
 C3H8O,1propanol C3H8O,2propanol C3O2            *C4             C4H2,butadiyne 
 C4H4,1,3-cyclo- C4H6,butadiene  C4H6,1butyne    C4H6,2butyne    C4H6,cyclo-    
 C4H8,1-butene   C4H8,cis2-buten C4H8,tr2-butene C4H8,isobutene  C4H8,cyclo-    
 (CH3COOH)2      C4H9,n-butyl    C4H9,i-butyl    C4H9,s-butyl    C4H9,t-butyl   
 C4H10,n-butane  C4H10,isobutane *C5             C5H6,1,3cyclo-  C5H8,cyclo-    
 C5H10,1-pentene C5H10,cyclo-    C5H11,pentyl    C5H11,t-pentyl  C5H12,n-pentane
 C5H12,i-pentane CH3C(CH3)2CH3   C6H2            C6H5,phenyl     C6H5O,phenoxy  
 C6H6            C6H5OH,phenol   C6H10,cyclo-    C6H12,1-hexene  C6H12,cyclo-   
 C6H13,n-hexyl   C6H14,n-hexane  C7H7,benzyl     C7H8            C7H8O,cresol-mx
 C7H14,1-heptene C7H15,n-heptyl  C7H16,n-heptane C7H16,2-methylh C8H8,styrene   
 C8H10,ethylbenz C8H16,1-octene  C8H17,n-octyl   C8H18,n-octane  C8H18,isooctane
 C9H19,n-nonyl   C10H8,naphthale C10H21,n-decyl  C12H9,o-bipheny C12H10,biphenyl
 HCO             HCCO            HCHO,formaldehy HCOOH           (HCOOH)2       
 O3              C(gr)           H2O(cr)         H2O(L)         

 NOTE. WEIGHT FRACTION OF FUEL IN TOTAL FUELS AND OF OXIDANT IN TOTAL OXIDANTS





   3    3    2292.093     -21.379     -12.489     -16.648
   4    3    2273.654     -21.497     -12.543     -16.690
   5    3    2256.673     -21.608     -12.593     -16.729
   6    3    2240.930     -21.712     -12.640     -16.765
   7    3    2226.251     -21.811     -12.684     -16.799





              THEORETICAL ROCKET PERFORMANCE ASSUMING EQUILIBRIUM

           COMPOSITION DURING EXPANSION FROM INFINITE AREA COMBUSTOR

 Pin =   406.1 PSIA
 CASE = ethanol-75-lox 

             REACTANT                    WT FRACTION      ENERGY      TEMP
                                          (SEE NOTE)     KJ/KG-MOL      K  
 FUEL        C2H5OH(L)                    0.7500000   -277526.835    298.000
 FUEL        H2O(L)                       0.2500000   -285841.390    298.000
 OXIDANT     O2(L)                        1.0000000    -12979.000     90.170

 O/F=    1.60000  %FUEL= 38.461538  R,EQ.RATIO= 0.982153  PHI,EQ.RATIO= 0.976771

                 CHAMBER   THROAT     EXIT     EXIT     EXIT     EXIT     EXIT
 Pinf/P            1.0000   1.7207   40.655   44.351   48.047   51.743   55.439
 P, BAR            28.000   16.273  0.68872  0.63133  0.58277  0.54114  0.50506
 T, K             3143.93  3003.20  2292.09  2273.65  2256.67  2240.93  2226.25
 RHO, KG/CU M    2.6405 0 1.6252 0 9.5312-2 8.8181-2 8.2097-2 7.6841-2 7.2255-2
 H, KJ/KG        -3513.00 -4072.25 -6774.42 -6837.01 -6894.07 -6946.47 -6994.87
 U, KJ/KG        -4573.41 -5073.52 -7497.02 -7552.96 -7603.92 -7650.70 -7693.88
 G, KJ/KG        -38755.2 -37736.9 -32467.9 -32323.8 -32190.5 -32066.4 -31950.3
 S, KJ/(KG)(K)    11.2096  11.2096  11.2096  11.2096  11.2096  11.2096  11.2096

 M, (1/n)          24.651   24.938   26.374   26.405   26.432   26.458   26.481
 (dLV/dLP)t      -1.02918 -1.02585 -1.00826 -1.00786 -1.00750 -1.00717 -1.00686
 (dLV/dLT)p        1.5996   1.5576   1.2365   1.2269   1.2181   1.2100   1.2025
 Cp, KJ/(KG)(K)    6.3507   6.1900   4.2179   4.1428   4.0732   4.0082   3.9474
 GAMMAs            1.1195   1.1171   1.1186   1.1193   1.1199   1.1206   1.1213
 SON VEL,M/SEC     1089.5   1057.6    899.0    895.2    891.6    888.3    885.3
 MACH NUMBER        0.000    1.000    2.841    2.880    2.917    2.950    2.981

 PERFORMANCE PARAMETERS

 Ae/At                      1.0000   7.0609   7.5597   8.0512   8.5359   9.0145
 CSTAR, M/SEC               1629.0   1629.0   1629.0   1629.0   1629.0   1629.0
 CF                         0.6492   1.5678   1.5828   1.5963   1.6086   1.6199
 Ivac, M/SEC                2004.3   2836.9   2856.0   2873.4   2889.2   2903.8
 Isp, M/SEC                 1057.6   2554.0   2578.4   2600.4   2620.5   2638.9


 MOLE FRACTIONS

 *CO              0.09339  0.08311  0.02532  0.02397  0.02276  0.02165  0.02064
 *CO2             0.21532  0.22920  0.30496  0.30670  0.30826  0.30969  0.31099
 *H               0.00790  0.00648  0.00108  0.00100  0.00093  0.00086  0.00081
 HO2              0.00011  0.00007  0.00000  0.00000  0.00000  0.00000  0.00000
 *H2              0.03006  0.02680  0.00923  0.00881  0.00842  0.00806  0.00774
 H2O              0.53266  0.54760  0.62001  0.62155  0.62293  0.62419  0.62534
 H2O2             0.00001  0.00001  0.00000  0.00000  0.00000  0.00000  0.00000
 *O               0.00815  0.00650  0.00091  0.00085  0.00078  0.00073  0.00068
 *OH              0.05579  0.04776  0.01282  0.01217  0.01158  0.01106  0.01058
 *O2              0.05660  0.05247  0.02566  0.02497  0.02434  0.02376  0.02323

  * THERMODYNAMIC PROPERTIES FITTED TO 20000.K

    PRODUCTS WHICH WERE CONSIDERED BUT WHOSE MOLE FRACTIONS
    WERE LESS THAN 5.000000E-06 FOR ALL ASSIGNED CONDITIONS

 *C              *CH             CH2             CH3             CH2OH          
 CH3O            CH4             CH3OH           CH3OOH          COOH           
 *C2             C2H             C2H2,acetylene  C2H2,vinylidene CH2CO,ketene   
 O(CH)2O         HO(CO)2OH       C2H3,vinyl      CH3CO,acetyl    C2H4           
 C2H4O,ethylen-o CH3CHO,ethanal  CH3COOH         OHCH2COOH       C2H5           
 C2H6            C2H5OH          CH3OCH3         CH3O2CH3        C2O            
 *C3             C3H3,1-propynl  C3H3,2-propynl  C3H4,allene     C3H4,propyne   
 C3H4,cyclo-     C3H5,allyl      C3H6,propylene  C3H6,cyclo-     C3H6O,propylox 
 C3H6O,acetone   C3H6O,propanal  C3H7,n-propyl   C3H7,i-propyl   C3H8           
 C3H8O,1propanol C3H8O,2propanol C3O2            *C4             C4H2,butadiyne 
 C4H4,1,3-cyclo- C4H6,butadiene  C4H6,1butyne    C4H6,2butyne    C4H6,cyclo-    
 C4H8,1-butene   C4H8,cis2-buten C4H8,tr2-butene C4H8,isobutene  C4H8,cyclo-    
 (CH3COOH)2      C4H9,n-butyl    C4H9,i-butyl    C4H9,s-butyl    C4H9,t-butyl   
 C4H10,n-butane  C4H10,isobutane *C5             C5H6,1,3cyclo-  C5H8,cyclo-    
 C5H10,1-pentene C5H10,cyclo-    C5H11,pentyl    C5H11,t-pentyl  C5H12,n-pentane
 C5H12,i-pentane CH3C(CH3)2CH3   C6H2            C6H5,phenyl     C6H5O,phenoxy  
 C6H6            C6H5OH,phenol   C6H10,cyclo-    C6H12,1-hexene  C6H12,cyclo-   
 C6H13,n-hexyl   C6H14,n-hexane  C7H7,benzyl     C7H8            C7H8O,cresol-mx
 C7H14,1-heptene C7H15,n-heptyl  C7H16,n-heptane C7H16,2-methylh C8H8,styrene   
 C8H10,ethylbenz C8H16,1-octene  C8H17,n-octyl   C8H18,n-octane  C8H18,isooctane
 C9H19,n-nonyl   C10H8,naphthale C10H21,n-decyl  C12H9,o-bipheny C12H10,biphenyl
 HCO             HCCO            HCHO,formaldehy HCOOH           (HCOOH)2       
 O3              C(gr)           H2O(cr)         H2O(L)         

 NOTE. WEIGHT FRACTION OF FUEL IN TOTAL FUELS AND OF OXIDANT IN TOTAL OXIDANTS






 POINT ITN      T            C           H           O 
   1    2    3150.838     -17.560     -10.566     -14.978
 Pinf/Pt = 1.722463
   2    3    3009.028     -18.028     -10.813     -15.197
 Pinf/Pt = 1.720854
   2    2    3009.264     -18.027     -10.813     -15.197
   3    5    2462.399     -20.375     -12.005     -16.242
   4    3    2423.299     -20.588     -12.107     -16.328
   5    3    2390.360     -20.773     -12.195     -16.401
   6    3    2361.886     -20.939     -12.273     -16.465
   7    3    2336.796     -21.088     -12.343     -16.522
   8    3    2314.356     -21.225     -12.406     -16.573





              THEORETICAL ROCKET PERFORMANCE ASSUMING EQUILIBRIUM

           COMPOSITION DURING EXPANSION FROM INFINITE AREA COMBUSTOR

 Pin =   435.1 PSIA
 CASE = ethanol-75-lox 

             REACTANT                    WT FRACTION      ENERGY      TEMP
                                          (SEE NOTE)     KJ/KG-MOL      K  
 FUEL        C2H5OH(L)                    0.7500000   -277526.835    298.000
 FUEL        H2O(L)                       0.2500000   -285841.390    298.000
 OXIDANT     O2(L)                        1.0000000    -12979.000     90.170

 O/F=    1.60000  %FUEL= 38.461538  R,EQ.RATIO= 0.982153  PHI,EQ.RATIO= 0.976771

                 CHAMBER   THROAT     EXIT     EXIT     EXIT     EXIT     EXIT     EXIT
 Pinf/P            1.0000   1.7209   18.480   22.175   25.871   29.567   33.263   36.959
 P, BAR            30.000   17.433   1.6234   1.3528   1.1596   1.0146  0.90190  0.81171
 T, K             3150.84  3009.26  2462.40  2423.30  2390.36  2361.89  2336.80  2314.36
 RHO, KG/CU M    2.8249 0 1.7387 0 2.0679-1 1.7560-1 1.5295-1 1.3571-1 1.2213-1 1.1115-1
 H, KJ/KG        -3513.00 -4073.16 -6183.61 -6325.40 -6443.21 -6543.75 -6631.27 -6708.64
 U, KJ/KG        -4575.00 -5075.79 -6968.67 -7095.80 -7201.37 -7291.41 -7369.74 -7438.94
 G, KJ/KG        -38759.4 -37735.8 -33728.8 -33433.3 -33182.6 -32964.6 -32771.5 -32597.8
 S, KJ/(KG)(K)    11.1863  11.1863  11.1863  11.1863  11.1863  11.1863  11.1863  11.1863

 M, (1/n)          24.668   24.955   26.079   26.153   26.214   26.266   26.310   26.349
 (dLV/dLP)t      -1.02895 -1.02564 -1.01202 -1.01108 -1.01031 -1.00965 -1.00908 -1.00858
 (dLV/dLT)p        1.5939   1.5520   1.3194   1.2994   1.2824   1.2677   1.2547   1.2431
 Cp, KJ/(KG)(K)    6.3005   6.1409   4.8184   4.6781   4.5560   4.4478   4.3506   4.2623
 GAMMAs            1.1198   1.1174   1.1150   1.1157   1.1163   1.1170   1.1177   1.1184
 SON VEL,M/SEC     1090.5   1058.5    935.6    927.1    920.0    913.8    908.5    903.7
 MACH NUMBER        0.000    1.000    2.470    2.558    2.631    2.694    2.749    2.797

 PERFORMANCE PARAMETERS

 Ae/At                      1.0000   3.8509   4.4189   4.9705   5.5082   6.0340   6.5496
 CSTAR, M/SEC               1630.1   1630.1   1630.1   1630.1   1630.1   1630.1   1630.1
 CF                         0.6493   1.4178   1.4549   1.4851   1.5103   1.5320   1.5509
 Ivac, M/SEC                2005.7   2650.8   2696.5   2734.0   2765.7   2793.0   2817.0
 Isp, M/SEC                 1058.5   2311.1   2371.7   2420.8   2462.0   2497.3   2528.1


 MOLE FRACTIONS

 *CO              0.09287  0.08258  0.03803  0.03487  0.03225  0.03002  0.02810  0.02642
 *CO2             0.21605  0.22993  0.28856  0.29266  0.29604  0.29891  0.30139  0.30356
 *H               0.00775  0.00635  0.00191  0.00169  0.00150  0.00136  0.00124  0.00113
 HO2              0.00011  0.00007  0.00001  0.00001  0.00001  0.00001  0.00000  0.00000
 *H2              0.02979  0.02655  0.01311  0.01214  0.01134  0.01066  0.01006  0.00954
 H2O              0.53354  0.54844  0.60535  0.60905  0.61209  0.61466  0.61686  0.61879
 H2O2             0.00002  0.00001  0.00000  0.00000  0.00000  0.00000  0.00000  0.00000
 *O               0.00802  0.00639  0.00168  0.00147  0.00130  0.00117  0.00106  0.00097
 *OH              0.05554  0.04752  0.01933  0.01766  0.01631  0.01519  0.01423  0.01339
 *O2              0.05630  0.05217  0.03202  0.03045  0.02915  0.02803  0.02706  0.02620

  * THERMODYNAMIC PROPERTIES FITTED TO 20000.K

    PRODUCTS WHICH WERE CONSIDERED BUT WHOSE MOLE FRACTIONS
    WERE LESS THAN 5.000000E-06 FOR ALL ASSIGNED CONDITIONS

 *C              *CH             CH2             CH3             CH2OH          
 CH3O            CH4             CH3OH           CH3OOH          COOH           
 *C2             C2H             C2H2,acetylene  C2H2,vinylidene CH2CO,ketene   
 O(CH)2O         HO(CO)2OH       C2H3,vinyl      CH3CO,acetyl    C2H4           
 C2H4O,ethylen-o CH3CHO,ethanal  CH3COOH         OHCH2COOH       C2H5           
 C2H6            C2H5OH          CH3OCH3         CH3O2CH3        C2O            
 *C3             C3H3,1-propynl  C3H3,2-propynl  C3H4,allene     C3H4,propyne   
 C3H4,cyclo-     C3H5,allyl      C3H6,propylene  C3H6,cyclo-     C3H6O,propylox 
 C3H6O,acetone   C3H6O,propanal  C3H7,n-propyl   C3H7,i-propyl   C3H8           
 C3H8O,1propanol C3H8O,2propanol C3O2            *C4             C4H2,butadiyne 
 C4H4,1,3-cyclo- C4H6,butadiene  C4H6,1butyne    C4H6,2butyne    C4H6,cyclo-    
 C4H8,1-butene   C4H8,cis2-buten C4H8,tr2-butene C4H8,isobutene  C4H8,cyclo-    
 (CH3COOH)2      C4H9,n-butyl    C4H9,i-butyl    C4H9,s-butyl    C4H9,t-butyl   
 C4H10,n-butane  C4H10,isobutane *C5             C5H6,1,3cyclo-  C5H8,cyclo-    
 C5H10,1-pentene C5H10,cyclo-    C5H11,pentyl    C5H11,t-pentyl  C5H12,n-pentane
 C5H12,i-pentane CH3C(CH3)2CH3   C6H2            C6H5,phenyl     C6H5O,phenoxy  
 C6H6            C6H5OH,phenol   C6H10,cyclo-    C6H12,1-hexene  C6H12,cyclo-   
 C6H13,n-hexyl   C6H14,n-hexane  C7H7,benzyl     C7H8            C7H8O,cresol-mx
 C7H14,1-heptene C7H15,n-heptyl  C7H16,n-heptane C7H16,2-methylh C8H8,styrene   
 C8H10,ethylbenz C8H16,1-octene  C8H17,n-octyl   C8H18,n-octane  C8H18,isooctane
 C9H19,n-nonyl   C10H8,naphthale C10H21,n-decyl  C12H9,o-bipheny C12H10,biphenyl
 HCO             HCCO            HCHO,formaldehy HCOOH           (HCOOH)2       
 O3              C(gr)           H2O(cr)         H2O(L)         

 NOTE. WEIGHT FRACTION OF FUEL IN TOTAL FUELS AND OF OXIDANT IN TOTAL OXIDANTS





   3    3    2294.051     -21.352     -12.465     -16.619
   4    3    2275.499     -21.471     -12.519     -16.662
   5    3    2258.414     -21.582     -12.569     -16.701
   6    3    2242.575     -21.687     -12.616     -16.737
   7    3    2227.806     -21.787     -12.661     -16.771





              THEORETICAL ROCKET PERFORMANCE ASSUMING EQUILIBRIUM

           COMPOSITION DURING EXPANSION FROM INFINITE AREA COMBUSTOR

 Pin =   435.1 PSIA
 CASE = ethanol-75-lox 

             REACTANT                    WT FRACTION      ENERGY      TEMP
                                          (SEE NOTE)     KJ/KG-MOL      K  
 FUEL        C2H5OH(L)                    0.7500000   -277526.835    298.000
 FUEL        H2O(L)                       0.2500000   -285841.390    298.000
 OXIDANT     O2(L)                        1.0000000    -12979.000     90.170

 O/F=    1.60000  %FUEL= 38.461538  R,EQ.RATIO= 0.982153  PHI,EQ.RATIO= 0.976771

                 CHAMBER   THROAT     EXIT     EXIT     EXIT     EXIT     EXIT
 Pinf/P            1.0000   1.7209   40.655   44.351   48.047   51.743   55.439
 P, BAR            30.000   17.433  0.73792  0.67642  0.62439  0.57979  0.54114
 T, K             3150.84  3009.26  2294.05  2275.50  2258.41  2242.57  2227.81
 RHO, KG/CU M    2.8249 0 1.7387 0 1.0207-1 9.4436-2 8.7923-2 8.2298-2 7.7387-2
 H, KJ/KG        -3513.00 -4073.16 -6777.90 -6840.51 -6897.60 -6950.02 -6998.44
 U, KJ/KG        -4575.00 -5075.79 -7500.85 -7556.79 -7607.76 -7654.53 -7697.71
 G, KJ/KG        -38759.4 -37735.8 -32439.9 -32295.0 -32161.0 -32036.2 -31919.4
 S, KJ/(KG)(K)    11.1863  11.1863  11.1863  11.1863  11.1863  11.1863  11.1863

 M, (1/n)          24.668   24.955   26.383   26.414   26.442   26.467   26.489
 (dLV/dLP)t      -1.02895 -1.02564 -1.00813 -1.00774 -1.00738 -1.00705 -1.00675
 (dLV/dLT)p        1.5939   1.5520   1.2327   1.2231   1.2144   1.2064   1.1989
 Cp, KJ/(KG)(K)    6.3005   6.1409   4.1815   4.1070   4.0379   3.9734   3.9130
 GAMMAs            1.1198   1.1174   1.1190   1.1197   1.1204   1.1211   1.1218
 SON VEL,M/SEC     1090.5   1058.5    899.5    895.6    892.0    888.7    885.7
 MACH NUMBER        0.000    1.000    2.841    2.881    2.917    2.950    2.981

 PERFORMANCE PARAMETERS

 Ae/At                      1.0000   7.0560   7.5542   8.0451   8.5293   9.0073
 CSTAR, M/SEC               1630.1   1630.1   1630.1   1630.1   1630.1   1630.1
 CF                         0.6493   1.5676   1.5826   1.5961   1.6084   1.6197
 Ivac, M/SEC                2005.7   2838.3   2857.4   2874.7   2890.5   2905.1
 Isp, M/SEC                 1058.5   2555.3   2579.7   2601.8   2621.8   2640.2


 MOLE FRACTIONS

 *CO              0.09287  0.08258  0.02492  0.02358  0.02237  0.02128  0.02027
 *CO2             0.21605  0.22993  0.30548  0.30720  0.30876  0.31017  0.31146
 *H               0.00775  0.00635  0.00104  0.00096  0.00090  0.00083  0.00078
 HO2              0.00011  0.00007  0.00000  0.00000  0.00000  0.00000  0.00000
 *H2              0.02979  0.02655  0.00907  0.00865  0.00826  0.00791  0.00758
 H2O              0.53354  0.54844  0.62050  0.62202  0.62340  0.62465  0.62579
 H2O2             0.00002  0.00001  0.00000  0.00000  0.00000  0.00000  0.00000
 *O               0.00802  0.00639  0.00089  0.00082  0.00076  0.00071  0.00066
 *OH              0.05554  0.04752  0.01266  0.01202  0.01144  0.01091  0.01044
 *O2              0.05630  0.05217  0.02543  0.02474  0.02411  0.02354  0.02301

  * THERMODYNAMIC PROPERTIES FITTED TO 20000.K

    PRODUCTS WHICH WERE CONSIDERED BUT WHOSE MOLE FRACTIONS
    WERE LESS THAN 5.000000E-06 FOR ALL ASSIGNED CONDITIONS

 *C              *CH             CH2             CH3             CH2OH          
 CH3O            CH4             CH3OH           CH3OOH          COOH           
 *C2             C2H             C2H2,acetylene  C2H2,vinylidene CH2CO,ketene   
 O(CH)2O         HO(CO)2OH       C2H3,vinyl      CH3CO,acetyl    C2H4           
 C2H4O,ethylen-o CH3CHO,ethanal  CH3COOH         OHCH2COOH       C2H5           
 C2H6            C2H5OH          CH3OCH3         CH3O2CH3        C2O            
 *C3             C3H3,1-propynl  C3H3,2-propynl  C3H4,allene     C3H4,propyne   
 C3H4,cyclo-     C3H5,allyl      C3H6,propylene  C3H6,cyclo-     C3H6O,propylox 
 C3H6O,acetone   C3H6O,propanal  C3H7,n-propyl   C3H7,i-propyl   C3H8           
 C3H8O,1propanol C3H8O,2propanol C3O2            *C4             C4H2,butadiyne 
 C4H4,1,3-cyclo- C4H6,butadiene  C4H6,1butyne    C4H6,2butyne    C4H6,cyclo-    
 C4H8,1-butene   C4H8,cis2-buten C4H8,tr2-butene C4H8,isobutene  C4H8,cyclo-    
 (CH3COOH)2      C4H9,n-butyl    C4H9,i-butyl    C4H9,s-butyl    C4H9,t-butyl   
 C4H10,n-butane  C4H10,isobutane *C5             C5H6,1,3cyclo-  C5H8,cyclo-    
 C5H10,1-pentene C5H10,cyclo-    C5H11,pentyl    C5H11,t-pentyl  C5H12,n-pentane
 C5H12,i-pentane CH3C(CH3)2CH3   C6H2            C6H5,phenyl     C6H5O,phenoxy  
 C6H6            C6H5OH,phenol   C6H10,cyclo-    C6H12,1-hexene  C6H12,cyclo-   
 C6H13,n-hexyl   C6H14,n-hexane  C7H7,benzyl     C7H8            C7H8O,cresol-mx
 C7H14,1-heptene C7H15,n-heptyl  C7H16,n-heptane C7H16,2-methylh C8H8,styrene   
 C8H10,ethylbenz C8H16,1-octene  C8H17,n-octyl   C8H18,n-octane  C8H18,isooctane
 C9H19,n-nonyl   C10H8,naphthale C10H21,n-decyl  C12H9,o-bipheny C12H10,biphenyl
 HCO             HCCO            HCHO,formaldehy HCOOH           (HCOOH)2       
 O3              C(gr)           H2O(cr)         H2O(L)         

 NOTE. WEIGHT FRACTION OF FUEL IN TOTAL FUELS AND OF OXIDANT IN TOTAL OXIDANTS



