
 *******************************************************************************

         NASA-GLENN CHEMICAL EQUILIBRIUM PROGRAM CEA2, MAY 21, 2004
                   BY  BONNIE MCBRIDE AND SANFORD GORDON
      REFS: NASA RP-1311, PART I, 1994 AND NASA RP-1311, PART II, 1996

 *******************************************************************************



 problem  case=ethanol-75-gox o/f=1.20,1.24,1.28,1.32,1.36,1.40,
       rocket  equilibrium
   p,bar=10.0,11.0,12.0,13.0,14.0,15.0,16.0,17.0,18.0,19.0,20.0,21.0,22.0,23.0,24
 .0,25.0,26.0,27.0,28.0,29.0,30.0,
   pi/p=18.47953,20.32748,22.17543,24.02339,25.87134,27.71929,29.56725,31.41520,3
 3.26315,35.11110,36.95906,38.80701,40.65496,42.50292
 react
   fuel=C2H5OH(L) wt=75  t,k=298
   fuel=H2O(L) wt=25  t,k=298
   oxid=O2 t,k=298
 end

 OPTIONS: TP=F  HP=F  SP=F  TV=F  UV=F  SV=F  DETN=F  SHOCK=F  REFL=F  INCD=F
 RKT=T  FROZ=F  EQL=T  IONS=F  SIUNIT=T  DEBUGF=F  SHKDBG=F  DETDBG=F  TRNSPT=F

 TRACE= 0.00E+00  S/R= 0.000000E+00  H/R= 0.000000E+00  U/R= 0.000000E+00

 Pc,BAR =    10.000000    11.000000    12.000000    13.000000    14.000000    15.000000    16.000000

 Pc,BAR =    17.000000    18.000000    19.000000    20.000000    21.000000    22.000000    23.000000

 Pc,BAR =    24.000000    25.000000    26.000000    27.000000    28.000000    29.000000    30.000000

 Pc/P =    18.4795    20.3275    22.1754    24.0234    25.8713    27.7193    29.5673    31.4152    33.2632

 Pc/P =    35.1111    36.9591    38.8070    40.6550    42.5029

 SUBSONIC AREA RATIOS =

 SUPERSONIC AREA RATIOS =

 NFZ=  1  Mdot/Ac= 0.000000E+00  Ac/At= 0.000000E+00

 WARNING!!  AMOUNT MISSING FOR REACTANT  3.
 PROGRAM SETS WEIGHT PERCENT = 100. (REACT)

    REACTANT          WT.FRAC   (ENERGY/R),K   TEMP,K  DENSITY
        EXPLODED FORMULA
 F: C2H5OH(L)        0.750000  -0.333786E+05   298.00  0.0000
          C  2.00000  H  6.00000  O  1.00000
 F: H2O(L)           0.250000  -0.343786E+05   298.00  0.0000
          H  2.00000  O  1.00000
 O: O2               1.000000  -0.530002E+00   298.00  0.0000
          O  2.00000

  SPECIES BEING CONSIDERED IN THIS SYSTEM
 (CONDENSED PHASE MAY HAVE NAME LISTED SEVERAL TIMES)
  LAST thermo.inp UPDATE:    9/09/04

  g 7/97  *C               tpis79  *CH              g 4/02  CH2            
  g 4/02  CH3              g11/00  CH2OH            g 7/00  CH3O           
  g 8/99  CH4              g 7/00  CH3OH            srd 01  CH3OOH         
  tpis79  *CO              g 9/99  *CO2             tpis91  COOH           
  tpis91  *C2              g 6/01  C2H              g 1/91  C2H2,acetylene 
  g 5/01  C2H2,vinylidene  g 4/02  CH2CO,ketene     g 3/02  O(CH)2O        
  srd 01  HO(CO)2OH        g 7/01  C2H3,vinyl       g 6/96  CH3CO,acetyl   
  g 1/00  C2H4             g 8/88  C2H4O,ethylen-o  g 8/88  CH3CHO,ethanal 
  g 6/00  CH3COOH          srd 01  OHCH2COOH        g 7/00  C2H5           
  g 7/00  C2H6             g 8/88  C2H5OH           g 7/00  CH3OCH3        
  srd 01  CH3O2CH3         g 8/00  C2O              tpis79  *C3            
  n 4/98  C3H3,1-propynl   n 4/98  C3H3,2-propynl   g 2/00  C3H4,allene    
  g 1/00  C3H4,propyne     g 5/90  C3H4,cyclo-      g 3/01  C3H5,allyl     
  g 2/00  C3H6,propylene   g 1/00  C3H6,cyclo-      g 6/01  C3H6O,propylox 
  g 6/97  C3H6O,acetone    g 1/02  C3H6O,propanal   g 7/01  C3H7,n-propyl  
  g 9/85  C3H7,i-propyl    g 2/00  C3H8             g 2/00  C3H8O,1propanol
  g 2/00  C3H8O,2propanol  g 7/88  C3O2             g tpis  *C4            
  g 7/01  C4H2,butadiyne   g 8/00  C4H4,1,3-cyclo-  n10/92  C4H6,butadiene 
  n10/93  C4H6,1butyne     n10/93  C4H6,2butyne     g 8/00  C4H6,cyclo-    
  n 4/88  C4H8,1-butene    n 4/88  C4H8,cis2-buten  n 4/88  C4H8,tr2-butene
  n 4/88  C4H8,isobutene   g 8/00  C4H8,cyclo-      g10/00  (CH3COOH)2     
  n10/84  C4H9,n-butyl     n10/84  C4H9,i-butyl     g 1/93  C4H9,s-butyl   
  g 1/93  C4H9,t-butyl     g12/00  C4H10,n-butane   g 8/00  C4H10,isobutane
  g 8/00  *C5              g 5/90  C5H6,1,3cyclo-   g 1/93  C5H8,cyclo-    
  n 4/87  C5H10,1-pentene  g 2/01  C5H10,cyclo-     n10/84  C5H11,pentyl   
  g 1/93  C5H11,t-pentyl   n10/85  C5H12,n-pentane  n10/85  C5H12,i-pentane
  n10/85  CH3C(CH3)2CH3    g 2/93  C6H2             g11/00  C6H5,phenyl    
  g 8/00  C6H5O,phenoxy    g 8/00  C6H6             g 8/00  C6H5OH,phenol  
  g 1/93  C6H10,cyclo-     n 4/87  C6H12,1-hexene   g 6/90  C6H12,cyclo-   
  n10/83  C6H13,n-hexyl    g 6/01  C6H14,n-hexane   g 7/01  C7H7,benzyl    
  g 1/93  C7H8             g12/00  C7H8O,cresol-mx  n 4/87  C7H14,1-heptene
  n10/83  C7H15,n-heptyl   n10/85  C7H16,n-heptane  n10/85  C7H16,2-methylh
  n 4/89  C8H8,styrene     n10/86  C8H10,ethylbenz  n 4/87  C8H16,1-octene 
  n10/83  C8H17,n-octyl    n 4/85  C8H18,n-octane   n 4/85  C8H18,isooctane
  n10/83  C9H19,n-nonyl    g 3/01  C10H8,naphthale  n10/83  C10H21,n-decyl 
  g 8/00  C12H9,o-bipheny  g 8/00  C12H10,biphenyl  g 6/97  *H             
  g 1/01  HCO              g 6/01  HCCO             g 4/02  HO2            
  tpis78  *H2              g 5/01  HCHO,formaldehy  g 6/01  HCOOH          
  g 8/89  H2O              g 6/99  H2O2             g 6/01  (HCOOH)2       
  g 5/97  *O               g 4/02  *OH              tpis89  *O2            
  g 8/01  O3               n 4/83  C(gr)            n 4/83  C(gr)          
  n 4/83  C(gr)            g11/99  H2O(cr)          g 8/01  H2O(L)         
  g 8/01  H2O(L)         

 O/F =   1.200000

                       EFFECTIVE FUEL     EFFECTIVE OXIDANT        MIXTURE
 ENTHALPY                  h(2)/R              h(1)/R               h0/R
 (KG-MOL)(K)/KG       -0.10204839E+04     -0.16563198E-01     -0.46386537E+03

 KG-FORM.WT./KG             bi(2)               bi(1)               b0i
  *C                   0.32560252E-01      0.00000000E+00      0.14800114E-01
  *H                   0.12543497E+00      0.00000000E+00      0.57015897E-01
  *O                   0.30157235E-01      0.62502344E-01      0.47800021E-01

 POINT ITN      T            C           H           O 
   1   23    2976.741     -16.601     -10.510     -16.435
 Pinf/Pt = 1.727509
   2    4    2823.637     -16.820     -10.700     -16.841
 Pinf/Pt = 1.729695
   2    2    2823.282     -16.821     -10.700     -16.842
   3    5    2103.300     -16.689     -11.337     -20.027
   4    3    2072.672     -16.636     -11.356     -20.225
   5    3    2044.820     -16.584     -11.373     -20.409
   6    3    2019.312     -16.534     -11.389     -20.584
   7    3    1995.810     -16.486     -11.403     -20.749
   8    3    1974.039     -16.440     -11.416     -20.905





              THEORETICAL ROCKET PERFORMANCE ASSUMING EQUILIBRIUM

           COMPOSITION DURING EXPANSION FROM INFINITE AREA COMBUSTOR

 Pin =   145.0 PSIA
 CASE = ethanol-75-gox 

             REACTANT                    WT FRACTION      ENERGY      TEMP
                                          (SEE NOTE)     KJ/KG-MOL      K  
 FUEL        C2H5OH(L)                    0.7500000   -277526.835    298.000
 FUEL        H2O(L)                       0.2500000   -285841.390    298.000
 OXIDANT     O2                           1.0000000        -4.407    298.000

 O/F=    1.20000  %FUEL= 45.454545  R,EQ.RATIO= 1.215652  PHI,EQ.RATIO= 1.302361

                 CHAMBER   THROAT     EXIT     EXIT     EXIT     EXIT     EXIT     EXIT
 Pinf/P            1.0000   1.7297   18.480   20.327   22.175   24.023   25.871   27.719
 P, BAR            10.000   5.7814  0.54114  0.49194  0.45095  0.41626  0.38653  0.36076
 T, K             2976.74  2823.28  2103.30  2072.67  2044.82  2019.31  1995.81  1974.04
 RHO, KG/CU M    9.0293-1 5.5582-1 7.1362-2 6.5846-2 6.1190-2 5.7204-2 5.3749-2 5.0723-2
 H, KJ/KG        -3856.81 -4445.08 -6575.19 -6646.93 -6711.49 -6770.11 -6823.72 -6873.06
 U, KJ/KG        -4964.31 -5485.24 -7333.49 -7394.04 -7448.45 -7497.79 -7542.86 -7584.30
 G, KJ/KG        -40356.5 -39063.1 -32365.0 -32061.2 -31784.3 -31530.1 -31295.6 -31078.0
 S, KJ/(KG)(K)    12.2616  12.2616  12.2616  12.2616  12.2616  12.2616  12.2616  12.2616

 M, (1/n)          22.348   22.568   23.062   23.066   23.070   23.073   23.075   23.077
 (dLV/dLP)t      -1.01858 -1.01330 -1.00064 -1.00053 -1.00045 -1.00039 -1.00034 -1.00029
 (dLV/dLT)p        1.3986   1.3014   1.0186   1.0158   1.0135   1.0117   1.0102   1.0089
 Cp, KJ/(KG)(K)    5.5116   4.8286   2.3996   2.3660   2.3385   2.3157   2.2964   2.2800
 GAMMAs            1.1280   1.1311   1.1838   1.1858   1.1874   1.1889   1.1902   1.1913
 SON VEL,M/SEC     1117.7   1084.7    947.5    941.2    935.5    930.1    925.1    920.5
 MACH NUMBER        0.000    1.000    2.461    2.510    2.554    2.595    2.633    2.668

 PERFORMANCE PARAMETERS

 Ae/At                      1.0000   3.6233   3.8760   4.1234   4.3662   4.6047   4.8393
 CSTAR, M/SEC               1658.7   1658.7   1658.7   1658.7   1658.7   1658.7   1658.7
 CF                         0.6539   1.4057   1.4242   1.4406   1.4553   1.4686   1.4808
 Ivac, M/SEC                2043.6   2656.9   2678.5   2697.9   2715.3   2731.2   2745.7
 Isp, M/SEC                 1084.7   2331.7   2362.3   2389.4   2413.8   2435.9   2456.1


 MOLE FRACTIONS

 *CO              0.17502  0.16928  0.14894  0.14805  0.14722  0.14643  0.14568  0.14497
 *CO2             0.15572  0.16473  0.19238  0.19333  0.19422  0.19505  0.19583  0.19658
 *H               0.01329  0.01046  0.00129  0.00112  0.00098  0.00087  0.00077  0.00069
 HO2              0.00001  0.00001  0.00000  0.00000  0.00000  0.00000  0.00000  0.00000
 *H2              0.08155  0.08009  0.08876  0.08966  0.09051  0.09131  0.09208  0.09281
 H2O              0.53352  0.54688  0.56748  0.56690  0.56630  0.56570  0.56509  0.56450
 *O               0.00282  0.00167  0.00001  0.00001  0.00001  0.00000  0.00000  0.00000
 *OH              0.03074  0.02233  0.00111  0.00091  0.00075  0.00063  0.00053  0.00045
 *O2              0.00732  0.00456  0.00003  0.00002  0.00001  0.00001  0.00001  0.00001

  * THERMODYNAMIC PROPERTIES FITTED TO 20000.K

    PRODUCTS WHICH WERE CONSIDERED BUT WHOSE MOLE FRACTIONS
    WERE LESS THAN 5.000000E-06 FOR ALL ASSIGNED CONDITIONS

 *C              *CH             CH2             CH3             CH2OH          
 CH3O            CH4             CH3OH           CH3OOH          COOH           
 *C2             C2H             C2H2,acetylene  C2H2,vinylidene CH2CO,ketene   
 O(CH)2O         HO(CO)2OH       C2H3,vinyl      CH3CO,acetyl    C2H4           
 C2H4O,ethylen-o CH3CHO,ethanal  CH3COOH         OHCH2COOH       C2H5           
 C2H6            C2H5OH          CH3OCH3         CH3O2CH3        C2O            
 *C3             C3H3,1-propynl  C3H3,2-propynl  C3H4,allene     C3H4,propyne   
 C3H4,cyclo-     C3H5,allyl      C3H6,propylene  C3H6,cyclo-     C3H6O,propylox 
 C3H6O,acetone   C3H6O,propanal  C3H7,n-propyl   C3H7,i-propyl   C3H8           
 C3H8O,1propanol C3H8O,2propanol C3O2            *C4             C4H2,butadiyne 
 C4H4,1,3-cyclo- C4H6,butadiene  C4H6,1butyne    C4H6,2butyne    C4H6,cyclo-    
 C4H8,1-butene   C4H8,cis2-buten C4H8,tr2-butene C4H8,isobutene  C4H8,cyclo-    
 (CH3COOH)2      C4H9,n-butyl    C4H9,i-butyl    C4H9,s-butyl    C4H9,t-butyl   
 C4H10,n-butane  C4H10,isobutane *C5             C5H6,1,3cyclo-  C5H8,cyclo-    
 C5H10,1-pentene C5H10,cyclo-    C5H11,pentyl    C5H11,t-pentyl  C5H12,n-pentane
 C5H12,i-pentane CH3C(CH3)2CH3   C6H2            C6H5,phenyl     C6H5O,phenoxy  
 C6H6            C6H5OH,phenol   C6H10,cyclo-    C6H12,1-hexene  C6H12,cyclo-   
 C6H13,n-hexyl   C6H14,n-hexane  C7H7,benzyl     C7H8            C7H8O,cresol-mx
 C7H14,1-heptene C7H15,n-heptyl  C7H16,n-heptane C7H16,2-methylh C8H8,styrene   
 C8H10,ethylbenz C8H16,1-octene  C8H17,n-octyl   C8H18,n-octane  C8H18,isooctane
 C9H19,n-nonyl   C10H8,naphthale C10H21,n-decyl  C12H9,o-bipheny C12H10,biphenyl
 HCO             HCCO            HCHO,formaldehy HCOOH           H2O2           
 (HCOOH)2        O3              C(gr)           H2O(cr)         H2O(L)         

 NOTE. WEIGHT FRACTION OF FUEL IN TOTAL FUELS AND OF OXIDANT IN TOTAL OXIDANTS





   3    3    1953.779     -16.395     -11.428     -21.054
   4    3    1934.846     -16.351     -11.440     -21.196
   5    3    1917.089     -16.309     -11.450     -21.333
   6    3    1900.379     -16.268     -11.460     -21.463
   7    3    1884.607     -16.229     -11.470     -21.589
   8    3    1869.680     -16.190     -11.479     -21.710





              THEORETICAL ROCKET PERFORMANCE ASSUMING EQUILIBRIUM

           COMPOSITION DURING EXPANSION FROM INFINITE AREA COMBUSTOR

 Pin =   145.0 PSIA
 CASE = ethanol-75-gox 

             REACTANT                    WT FRACTION      ENERGY      TEMP
                                          (SEE NOTE)     KJ/KG-MOL      K  
 FUEL        C2H5OH(L)                    0.7500000   -277526.835    298.000
 FUEL        H2O(L)                       0.2500000   -285841.390    298.000
 OXIDANT     O2                           1.0000000        -4.407    298.000

 O/F=    1.20000  %FUEL= 45.454545  R,EQ.RATIO= 1.215652  PHI,EQ.RATIO= 1.302361

                 CHAMBER   THROAT     EXIT     EXIT     EXIT     EXIT     EXIT     EXIT
 Pinf/P            1.0000   1.7297   29.567   31.415   33.263   35.111   36.959   38.807
 P, BAR            10.000   5.7814  0.33821  0.31832  0.30063  0.28481  0.27057  0.25769
 T, K             2976.74  2823.28  1953.78  1934.85  1917.09  1900.38  1884.61  1869.68
 RHO, KG/CU M    9.0293-1 5.5582-1 4.8049-2 4.5668-2 4.3533-2 4.1606-2 3.9858-2 3.8264-2
 H, KJ/KG        -3856.81 -4445.08 -6918.73 -6961.19 -7000.85 -7038.02 -7072.99 -7105.98
 U, KJ/KG        -4964.31 -5485.24 -7622.61 -7658.21 -7691.44 -7722.57 -7751.83 -7779.42
 G, KJ/KG        -40356.5 -39063.1 -30875.2 -30685.5 -30507.5 -30339.7 -30181.3 -30031.3
 S, KJ/(KG)(K)    12.2616  12.2616  12.2616  12.2616  12.2616  12.2616  12.2616  12.2616

 M, (1/n)          22.348   22.568   23.079   23.080   23.081   23.082   23.083   23.084
 (dLV/dLP)t      -1.01858 -1.01330 -1.00026 -1.00023 -1.00020 -1.00018 -1.00016 -1.00015
 (dLV/dLT)p        1.3986   1.3014   1.0079   1.0071   1.0063   1.0057   1.0051   1.0047
 Cp, KJ/(KG)(K)    5.5116   4.8286   2.2659   2.2536   2.2428   2.2333   2.2248   2.2172
 GAMMAs            1.1280   1.1311   1.1923   1.1932   1.1940   1.1947   1.1953   1.1959
 SON VEL,M/SEC     1117.7   1084.7    916.1    912.0    908.0    904.3    900.8    897.4
 MACH NUMBER        0.000    1.000    2.701    2.732    2.762    2.789    2.816    2.841

 PERFORMANCE PARAMETERS

 Ae/At                      1.0000   5.0703   5.2981   5.5228   5.7448   5.9640   6.1808
 CSTAR, M/SEC               1658.7   1658.7   1658.7   1658.7   1658.7   1658.7   1658.7
 CF                         0.6539   1.4919   1.5022   1.5118   1.5207   1.5290   1.5369
 Ivac, M/SEC                2043.6   2759.1   2771.5   2783.0   2793.8   2803.9   2813.4
 Isp, M/SEC                 1084.7   2474.6   2491.7   2507.6   2522.4   2536.2   2549.2


 MOLE FRACTIONS

 *CO              0.17502  0.16928  0.14428  0.14362  0.14299  0.14238  0.14179  0.14121
 *CO2             0.15572  0.16473  0.19729  0.19796  0.19861  0.19924  0.19984  0.20043
 *H               0.01329  0.01046  0.00062  0.00056  0.00051  0.00046  0.00042  0.00039
 HO2              0.00001  0.00001  0.00000  0.00000  0.00000  0.00000  0.00000  0.00000
 *H2              0.08155  0.08009  0.09351  0.09419  0.09483  0.09546  0.09606  0.09664
 H2O              0.53352  0.54688  0.56391  0.56333  0.56276  0.56221  0.56166  0.56113
 *O               0.00282  0.00167  0.00000  0.00000  0.00000  0.00000  0.00000  0.00000
 *OH              0.03074  0.02233  0.00039  0.00033  0.00029  0.00025  0.00022  0.00020
 *O2              0.00732  0.00456  0.00000  0.00000  0.00000  0.00000  0.00000  0.00000

  * THERMODYNAMIC PROPERTIES FITTED TO 20000.K

    PRODUCTS WHICH WERE CONSIDERED BUT WHOSE MOLE FRACTIONS
    WERE LESS THAN 5.000000E-06 FOR ALL ASSIGNED CONDITIONS

 *C              *CH             CH2             CH3             CH2OH          
 CH3O            CH4             CH3OH           CH3OOH          COOH           
 *C2             C2H             C2H2,acetylene  C2H2,vinylidene CH2CO,ketene   
 O(CH)2O         HO(CO)2OH       C2H3,vinyl      CH3CO,acetyl    C2H4           
 C2H4O,ethylen-o CH3CHO,ethanal  CH3COOH         OHCH2COOH       C2H5           
 C2H6            C2H5OH          CH3OCH3         CH3O2CH3        C2O            
 *C3             C3H3,1-propynl  C3H3,2-propynl  C3H4,allene     C3H4,propyne   
 C3H4,cyclo-     C3H5,allyl      C3H6,propylene  C3H6,cyclo-     C3H6O,propylox 
 C3H6O,acetone   C3H6O,propanal  C3H7,n-propyl   C3H7,i-propyl   C3H8           
 C3H8O,1propanol C3H8O,2propanol C3O2            *C4             C4H2,butadiyne 
 C4H4,1,3-cyclo- C4H6,butadiene  C4H6,1butyne    C4H6,2butyne    C4H6,cyclo-    
 C4H8,1-butene   C4H8,cis2-buten C4H8,tr2-butene C4H8,isobutene  C4H8,cyclo-    
 (CH3COOH)2      C4H9,n-butyl    C4H9,i-butyl    C4H9,s-butyl    C4H9,t-butyl   
 C4H10,n-butane  C4H10,isobutane *C5             C5H6,1,3cyclo-  C5H8,cyclo-    
 C5H10,1-pentene C5H10,cyclo-    C5H11,pentyl    C5H11,t-pentyl  C5H12,n-pentane
 C5H12,i-pentane CH3C(CH3)2CH3   C6H2            C6H5,phenyl     C6H5O,phenoxy  
 C6H6            C6H5OH,phenol   C6H10,cyclo-    C6H12,1-hexene  C6H12,cyclo-   
 C6H13,n-hexyl   C6H14,n-hexane  C7H7,benzyl     C7H8            C7H8O,cresol-mx
 C7H14,1-heptene C7H15,n-heptyl  C7H16,n-heptane C7H16,2-methylh C8H8,styrene   
 C8H10,ethylbenz C8H16,1-octene  C8H17,n-octyl   C8H18,n-octane  C8H18,isooctane
 C9H19,n-nonyl   C10H8,naphthale C10H21,n-decyl  C12H9,o-bipheny C12H10,biphenyl
 HCO             HCCO            HCHO,formaldehy HCOOH           H2O2           
 (HCOOH)2        O3              C(gr)           H2O(cr)         H2O(L)         

 NOTE. WEIGHT FRACTION OF FUEL IN TOTAL FUELS AND OF OXIDANT IN TOTAL OXIDANTS





   3    3    1855.519     -16.153     -11.487     -21.827
   4    3    1842.054     -16.116     -11.495     -21.940





              THEORETICAL ROCKET PERFORMANCE ASSUMING EQUILIBRIUM

           COMPOSITION DURING EXPANSION FROM INFINITE AREA COMBUSTOR

 Pin =   145.0 PSIA
 CASE = ethanol-75-gox 

             REACTANT                    WT FRACTION      ENERGY      TEMP
                                          (SEE NOTE)     KJ/KG-MOL      K  
 FUEL        C2H5OH(L)                    0.7500000   -277526.835    298.000
 FUEL        H2O(L)                       0.2500000   -285841.390    298.000
 OXIDANT     O2                           1.0000000        -4.407    298.000

 O/F=    1.20000  %FUEL= 45.454545  R,EQ.RATIO= 1.215652  PHI,EQ.RATIO= 1.302361

                 CHAMBER   THROAT     EXIT     EXIT
 Pinf/P            1.0000   1.7297   40.655   42.503
 P, BAR            10.000   5.7814  0.24597  0.23528
 T, K             2976.74  2823.28  1855.52  1842.05
 RHO, KG/CU M    9.0293-1 5.5582-1 3.6804-2 3.5462-2
 H, KJ/KG        -3856.81 -4445.08 -7137.19 -7166.79
 U, KJ/KG        -4964.31 -5485.24 -7805.51 -7830.24
 G, KJ/KG        -40356.5 -39063.1 -29888.9 -29753.4
 S, KJ/(KG)(K)    12.2616  12.2616  12.2616  12.2616

 M, (1/n)          22.348   22.568   23.084   23.085
 (dLV/dLP)t      -1.01858 -1.01330 -1.00013 -1.00012
 (dLV/dLT)p        1.3986   1.3014   1.0042   1.0039
 Cp, KJ/(KG)(K)    5.5116   4.8286   2.2103   2.2041
 GAMMAs            1.1280   1.1311   1.1965   1.1970
 SON VEL,M/SEC     1117.7   1084.7    894.2    891.1
 MACH NUMBER        0.000    1.000    2.864    2.887

 PERFORMANCE PARAMETERS

 Ae/At                      1.0000   6.3953   6.6075
 CSTAR, M/SEC               1658.7   1658.7   1658.7
 CF                         0.6539   1.5442   1.5512
 Ivac, M/SEC                2043.6   2822.3   2830.8
 Isp, M/SEC                 1084.7   2561.4   2572.9


 MOLE FRACTIONS

 *CO              0.17502  0.16928  0.14066  0.14012
 *CO2             0.15572  0.16473  0.20099  0.20154
 *H               0.01329  0.01046  0.00035  0.00033
 HO2              0.00001  0.00001  0.00000  0.00000
 *H2              0.08155  0.08009  0.09721  0.09776
 H2O              0.53352  0.54688  0.56061  0.56010
 *O               0.00282  0.00167  0.00000  0.00000
 *OH              0.03074  0.02233  0.00017  0.00016
 *O2              0.00732  0.00456  0.00000  0.00000

  * THERMODYNAMIC PROPERTIES FITTED TO 20000.K

    PRODUCTS WHICH WERE CONSIDERED BUT WHOSE MOLE FRACTIONS
    WERE LESS THAN 5.000000E-06 FOR ALL ASSIGNED CONDITIONS

 *C              *CH             CH2             CH3             CH2OH          
 CH3O            CH4             CH3OH           CH3OOH          COOH           
 *C2             C2H             C2H2,acetylene  C2H2,vinylidene CH2CO,ketene   
 O(CH)2O         HO(CO)2OH       C2H3,vinyl      CH3CO,acetyl    C2H4           
 C2H4O,ethylen-o CH3CHO,ethanal  CH3COOH         OHCH2COOH       C2H5           
 C2H6            C2H5OH          CH3OCH3         CH3O2CH3        C2O            
 *C3             C3H3,1-propynl  C3H3,2-propynl  C3H4,allene     C3H4,propyne   
 C3H4,cyclo-     C3H5,allyl      C3H6,propylene  C3H6,cyclo-     C3H6O,propylox 
 C3H6O,acetone   C3H6O,propanal  C3H7,n-propyl   C3H7,i-propyl   C3H8           
 C3H8O,1propanol C3H8O,2propanol C3O2            *C4             C4H2,butadiyne 
 C4H4,1,3-cyclo- C4H6,butadiene  C4H6,1butyne    C4H6,2butyne    C4H6,cyclo-    
 C4H8,1-butene   C4H8,cis2-buten C4H8,tr2-butene C4H8,isobutene  C4H8,cyclo-    
 (CH3COOH)2      C4H9,n-butyl    C4H9,i-butyl    C4H9,s-butyl    C4H9,t-butyl   
 C4H10,n-butane  C4H10,isobutane *C5             C5H6,1,3cyclo-  C5H8,cyclo-    
 C5H10,1-pentene C5H10,cyclo-    C5H11,pentyl    C5H11,t-pentyl  C5H12,n-pentane
 C5H12,i-pentane CH3C(CH3)2CH3   C6H2            C6H5,phenyl     C6H5O,phenoxy  
 C6H6            C6H5OH,phenol   C6H10,cyclo-    C6H12,1-hexene  C6H12,cyclo-   
 C6H13,n-hexyl   C6H14,n-hexane  C7H7,benzyl     C7H8            C7H8O,cresol-mx
 C7H14,1-heptene C7H15,n-heptyl  C7H16,n-heptane C7H16,2-methylh C8H8,styrene   
 C8H10,ethylbenz C8H16,1-octene  C8H17,n-octyl   C8H18,n-octane  C8H18,isooctane
 C9H19,n-nonyl   C10H8,naphthale C10H21,n-decyl  C12H9,o-bipheny C12H10,biphenyl
 HCO             HCCO            HCHO,formaldehy HCOOH           H2O2           
 (HCOOH)2        O3              C(gr)           H2O(cr)         H2O(L)         

 NOTE. WEIGHT FRACTION OF FUEL IN TOTAL FUELS AND OF OXIDANT IN TOTAL OXIDANTS






 POINT ITN      T            C           H           O 
   1    3    2984.348     -16.531     -10.469     -16.409
 Pinf/Pt = 1.727932
   2    4    2829.522     -16.747     -10.657     -16.818
 Pinf/Pt = 1.730220
   2    2    2829.147     -16.747     -10.658     -16.819
   3    5    2102.893     -16.591     -11.289     -20.030
   4    3    2072.176     -16.538     -11.308     -20.228
   5    3    2044.254     -16.486     -11.325     -20.413
   6    3    2018.691     -16.436     -11.341     -20.588
   7    3    1995.144     -16.388     -11.355     -20.753
   8    3    1973.338     -16.341     -11.368     -20.910





              THEORETICAL ROCKET PERFORMANCE ASSUMING EQUILIBRIUM

           COMPOSITION DURING EXPANSION FROM INFINITE AREA COMBUSTOR

 Pin =   159.5 PSIA
 CASE = ethanol-75-gox 

             REACTANT                    WT FRACTION      ENERGY      TEMP
                                          (SEE NOTE)     KJ/KG-MOL      K  
 FUEL        C2H5OH(L)                    0.7500000   -277526.835    298.000
 FUEL        H2O(L)                       0.2500000   -285841.390    298.000
 OXIDANT     O2                           1.0000000        -4.407    298.000

 O/F=    1.20000  %FUEL= 45.454545  R,EQ.RATIO= 1.215652  PHI,EQ.RATIO= 1.302361

                 CHAMBER   THROAT     EXIT     EXIT     EXIT     EXIT     EXIT     EXIT
 Pinf/P            1.0000   1.7302   18.480   20.327   22.175   24.023   25.871   27.719
 P, BAR            11.000   6.3576  0.59525  0.54114  0.49604  0.45789  0.42518  0.39684
 T, K             2984.35  2829.15  2102.89  2072.18  2044.25  2018.69  1995.14  1973.34
 RHO, KG/CU M    9.9144-1 6.1033-1 7.8518-2 7.2452-2 6.7331-2 6.2946-2 5.9145-2 5.5817-2
 H, KJ/KG        -3856.81 -4446.37 -6577.47 -6649.19 -6713.74 -6772.33 -6825.92 -6875.25
 U, KJ/KG        -4966.32 -5488.03 -7335.58 -7396.09 -7450.46 -7499.76 -7544.80 -7586.21
 G, KJ/KG        -40344.0 -39036.0 -32287.8 -31984.0 -31707.1 -31453.2 -31218.9 -31001.6
 S, KJ/(KG)(K)    12.2262  12.2262  12.2262  12.2262  12.2262  12.2262  12.2262  12.2262

 M, (1/n)          22.364   22.582   23.063   23.068   23.071   23.074   23.076   23.078
 (dLV/dLP)t      -1.01817 -1.01293 -1.00060 -1.00051 -1.00043 -1.00037 -1.00032 -1.00028
 (dLV/dLT)p        1.3890   1.2926   1.0177   1.0149   1.0128   1.0111   1.0096   1.0085
 Cp, KJ/(KG)(K)    5.4270   4.7499   2.3892   2.3570   2.3307   2.3088   2.2904   2.2746
 GAMMAs            1.1287   1.1320   1.1844   1.1863   1.1879   1.1893   1.1905   1.1916
 SON VEL,M/SEC     1119.0   1085.9    947.6    941.3    935.5    930.1    925.1    920.4
 MACH NUMBER        0.000    1.000    2.462    2.511    2.555    2.596    2.634    2.669

 PERFORMANCE PARAMETERS

 Ae/At                     1.00000   3.6185   3.8707   4.1178   4.3602   4.5983   4.8325
 CSTAR, M/SEC               1659.8   1659.8   1659.8   1659.8   1659.8   1659.8   1659.8
 CF                         0.6542   1.4054   1.4238   1.4402   1.4549   1.4682   1.4803
 Ivac, M/SEC                2045.2   2657.7   2679.3   2698.6   2716.0   2731.8   2746.4
 Isp, M/SEC                 1085.9   2332.7   2363.2   2390.4   2414.8   2436.8   2457.0


 MOLE FRACTIONS

 *CO              0.17486  0.16915  0.14893  0.14804  0.14721  0.14642  0.14566  0.14495
 *CO2             0.15613  0.16507  0.19241  0.19336  0.19425  0.19508  0.19586  0.19661
 *H               0.01295  0.01017  0.00123  0.00107  0.00094  0.00083  0.00073  0.00066
 HO2              0.00001  0.00001  0.00000  0.00000  0.00000  0.00000  0.00000  0.00000
 *H2              0.08126  0.07986  0.08878  0.08968  0.09053  0.09134  0.09211  0.09284
 H2O              0.53466  0.54787  0.56756  0.56696  0.56635  0.56573  0.56512  0.56452
 *O               0.00272  0.00160  0.00001  0.00001  0.00000  0.00000  0.00000  0.00000
 *OH              0.03030  0.02191  0.00105  0.00086  0.00071  0.00060  0.00050  0.00043
 *O2              0.00709  0.00438  0.00003  0.00002  0.00001  0.00001  0.00001  0.00001

  * THERMODYNAMIC PROPERTIES FITTED TO 20000.K

    PRODUCTS WHICH WERE CONSIDERED BUT WHOSE MOLE FRACTIONS
    WERE LESS THAN 5.000000E-06 FOR ALL ASSIGNED CONDITIONS

 *C              *CH             CH2             CH3             CH2OH          
 CH3O            CH4             CH3OH           CH3OOH          COOH           
 *C2             C2H             C2H2,acetylene  C2H2,vinylidene CH2CO,ketene   
 O(CH)2O         HO(CO)2OH       C2H3,vinyl      CH3CO,acetyl    C2H4           
 C2H4O,ethylen-o CH3CHO,ethanal  CH3COOH         OHCH2COOH       C2H5           
 C2H6            C2H5OH          CH3OCH3         CH3O2CH3        C2O            
 *C3             C3H3,1-propynl  C3H3,2-propynl  C3H4,allene     C3H4,propyne   
 C3H4,cyclo-     C3H5,allyl      C3H6,propylene  C3H6,cyclo-     C3H6O,propylox 
 C3H6O,acetone   C3H6O,propanal  C3H7,n-propyl   C3H7,i-propyl   C3H8           
 C3H8O,1propanol C3H8O,2propanol C3O2            *C4             C4H2,butadiyne 
 C4H4,1,3-cyclo- C4H6,butadiene  C4H6,1butyne    C4H6,2butyne    C4H6,cyclo-    
 C4H8,1-butene   C4H8,cis2-buten C4H8,tr2-butene C4H8,isobutene  C4H8,cyclo-    
 (CH3COOH)2      C4H9,n-butyl    C4H9,i-butyl    C4H9,s-butyl    C4H9,t-butyl   
 C4H10,n-butane  C4H10,isobutane *C5             C5H6,1,3cyclo-  C5H8,cyclo-    
 C5H10,1-pentene C5H10,cyclo-    C5H11,pentyl    C5H11,t-pentyl  C5H12,n-pentane
 C5H12,i-pentane CH3C(CH3)2CH3   C6H2            C6H5,phenyl     C6H5O,phenoxy  
 C6H6            C6H5OH,phenol   C6H10,cyclo-    C6H12,1-hexene  C6H12,cyclo-   
 C6H13,n-hexyl   C6H14,n-hexane  C7H7,benzyl     C7H8            C7H8O,cresol-mx
 C7H14,1-heptene C7H15,n-heptyl  C7H16,n-heptane C7H16,2-methylh C8H8,styrene   
 C8H10,ethylbenz C8H16,1-octene  C8H17,n-octyl   C8H18,n-octane  C8H18,isooctane
 C9H19,n-nonyl   C10H8,naphthale C10H21,n-decyl  C12H9,o-bipheny C12H10,biphenyl
 HCO             HCCO            HCHO,formaldehy HCOOH           H2O2           
 (HCOOH)2        O3              C(gr)           H2O(cr)         H2O(L)         

 NOTE. WEIGHT FRACTION OF FUEL IN TOTAL FUELS AND OF OXIDANT IN TOTAL OXIDANTS





   3    3    1953.049     -16.296     -11.380     -21.060
   4    3    1934.093     -16.252     -11.391     -21.202
   5    3    1916.317     -16.209     -11.402     -21.339
   6    3    1899.591     -16.168     -11.412     -21.470
   7    3    1883.806     -16.129     -11.421     -21.596
   8    3    1868.869     -16.090     -11.430     -21.717





              THEORETICAL ROCKET PERFORMANCE ASSUMING EQUILIBRIUM

           COMPOSITION DURING EXPANSION FROM INFINITE AREA COMBUSTOR

 Pin =   159.5 PSIA
 CASE = ethanol-75-gox 

             REACTANT                    WT FRACTION      ENERGY      TEMP
                                          (SEE NOTE)     KJ/KG-MOL      K  
 FUEL        C2H5OH(L)                    0.7500000   -277526.835    298.000
 FUEL        H2O(L)                       0.2500000   -285841.390    298.000
 OXIDANT     O2                           1.0000000        -4.407    298.000

 O/F=    1.20000  %FUEL= 45.454545  R,EQ.RATIO= 1.215652  PHI,EQ.RATIO= 1.302361

                 CHAMBER   THROAT     EXIT     EXIT     EXIT     EXIT     EXIT     EXIT
 Pinf/P            1.0000   1.7302   29.567   31.415   33.263   35.111   36.959   38.807
 P, BAR            11.000   6.3576  0.37203  0.35015  0.33070  0.31329  0.29763  0.28345
 T, K             2984.35  2829.15  1953.05  1934.09  1916.32  1899.59  1883.81  1868.87
 RHO, KG/CU M    9.9144-1 6.1033-1 5.2875-2 5.0256-2 4.7906-2 4.5786-2 4.3863-2 4.2109-2
 H, KJ/KG        -3856.81 -4446.37 -6920.89 -6963.34 -7002.98 -7040.14 -7075.09 -7108.07
 U, KJ/KG        -4966.32 -5488.03 -7624.50 -7660.08 -7693.28 -7724.39 -7753.63 -7781.20
 G, KJ/KG        -40344.0 -39036.0 -30799.2 -30609.9 -30432.2 -30264.9 -30106.8 -29957.2
 S, KJ/(KG)(K)    12.2262  12.2262  12.2262  12.2262  12.2262  12.2262  12.2262  12.2262

 M, (1/n)          22.364   22.582   23.079   23.081   23.082   23.083   23.083   23.084
 (dLV/dLP)t      -1.01817 -1.01293 -1.00024 -1.00022 -1.00019 -1.00017 -1.00015 -1.00014
 (dLV/dLT)p        1.3890   1.2926   1.0075   1.0067   1.0060   1.0054   1.0049   1.0044
 Cp, KJ/(KG)(K)    5.4270   4.7499   2.2611   2.2493   2.2389   2.2297   2.2215   2.2141
 GAMMAs            1.1287   1.1320   1.1926   1.1934   1.1942   1.1949   1.1956   1.1961
 SON VEL,M/SEC     1119.0   1085.9    916.0    911.9    907.9    904.2    900.7    897.3
 MACH NUMBER        0.000    1.000    2.702    2.733    2.763    2.790    2.817    2.842

 PERFORMANCE PARAMETERS

 Ae/At                     1.00000   5.0632   5.2906   5.5150   5.7366   5.9555   6.1720
 CSTAR, M/SEC               1659.8   1659.8   1659.8   1659.8   1659.8   1659.8   1659.8
 CF                         0.6542   1.4915   1.5018   1.5113   1.5202   1.5285   1.5364
 Ivac, M/SEC                2045.2   2759.7   2772.1   2783.6   2794.4   2804.5   2814.0
 Isp, M/SEC                 1085.9   2475.5   2492.6   2508.5   2523.2   2537.0   2550.0


 MOLE FRACTIONS

 *CO              0.17486  0.16915  0.14426  0.14360  0.14296  0.14235  0.14176  0.14119
 *CO2             0.15613  0.16507  0.19732  0.19800  0.19865  0.19927  0.19988  0.20046
 *H               0.01295  0.01017  0.00059  0.00053  0.00048  0.00044  0.00040  0.00037
 HO2              0.00001  0.00001  0.00000  0.00000  0.00000  0.00000  0.00000  0.00000
 *H2              0.08126  0.07986  0.09354  0.09422  0.09487  0.09549  0.09610  0.09668
 H2O              0.53466  0.54787  0.56392  0.56334  0.56276  0.56220  0.56166  0.56112
 *O               0.00272  0.00160  0.00000  0.00000  0.00000  0.00000  0.00000  0.00000
 *OH              0.03030  0.02191  0.00037  0.00032  0.00028  0.00024  0.00021  0.00019
 *O2              0.00709  0.00438  0.00000  0.00000  0.00000  0.00000  0.00000  0.00000

  * THERMODYNAMIC PROPERTIES FITTED TO 20000.K

    PRODUCTS WHICH WERE CONSIDERED BUT WHOSE MOLE FRACTIONS
    WERE LESS THAN 5.000000E-06 FOR ALL ASSIGNED CONDITIONS

 *C              *CH             CH2             CH3             CH2OH          
 CH3O            CH4             CH3OH           CH3OOH          COOH           
 *C2             C2H             C2H2,acetylene  C2H2,vinylidene CH2CO,ketene   
 O(CH)2O         HO(CO)2OH       C2H3,vinyl      CH3CO,acetyl    C2H4           
 C2H4O,ethylen-o CH3CHO,ethanal  CH3COOH         OHCH2COOH       C2H5           
 C2H6            C2H5OH          CH3OCH3         CH3O2CH3        C2O            
 *C3             C3H3,1-propynl  C3H3,2-propynl  C3H4,allene     C3H4,propyne   
 C3H4,cyclo-     C3H5,allyl      C3H6,propylene  C3H6,cyclo-     C3H6O,propylox 
 C3H6O,acetone   C3H6O,propanal  C3H7,n-propyl   C3H7,i-propyl   C3H8           
 C3H8O,1propanol C3H8O,2propanol C3O2            *C4             C4H2,butadiyne 
 C4H4,1,3-cyclo- C4H6,butadiene  C4H6,1butyne    C4H6,2butyne    C4H6,cyclo-    
 C4H8,1-butene   C4H8,cis2-buten C4H8,tr2-butene C4H8,isobutene  C4H8,cyclo-    
 (CH3COOH)2      C4H9,n-butyl    C4H9,i-butyl    C4H9,s-butyl    C4H9,t-butyl   
 C4H10,n-butane  C4H10,isobutane *C5             C5H6,1,3cyclo-  C5H8,cyclo-    
 C5H10,1-pentene C5H10,cyclo-    C5H11,pentyl    C5H11,t-pentyl  C5H12,n-pentane
 C5H12,i-pentane CH3C(CH3)2CH3   C6H2            C6H5,phenyl     C6H5O,phenoxy  
 C6H6            C6H5OH,phenol   C6H10,cyclo-    C6H12,1-hexene  C6H12,cyclo-   
 C6H13,n-hexyl   C6H14,n-hexane  C7H7,benzyl     C7H8            C7H8O,cresol-mx
 C7H14,1-heptene C7H15,n-heptyl  C7H16,n-heptane C7H16,2-methylh C8H8,styrene   
 C8H10,ethylbenz C8H16,1-octene  C8H17,n-octyl   C8H18,n-octane  C8H18,isooctane
 C9H19,n-nonyl   C10H8,naphthale C10H21,n-decyl  C12H9,o-bipheny C12H10,biphenyl
 HCO             HCCO            HCHO,formaldehy HCOOH           H2O2           
 (HCOOH)2        O3              C(gr)           H2O(cr)         H2O(L)         

 NOTE. WEIGHT FRACTION OF FUEL IN TOTAL FUELS AND OF OXIDANT IN TOTAL OXIDANTS





   3    3    1854.699     -16.052     -11.439     -21.834
   4    3    1841.227     -16.016     -11.447     -21.947





              THEORETICAL ROCKET PERFORMANCE ASSUMING EQUILIBRIUM

           COMPOSITION DURING EXPANSION FROM INFINITE AREA COMBUSTOR

 Pin =   159.5 PSIA
 CASE = ethanol-75-gox 

             REACTANT                    WT FRACTION      ENERGY      TEMP
                                          (SEE NOTE)     KJ/KG-MOL      K  
 FUEL        C2H5OH(L)                    0.7500000   -277526.835    298.000
 FUEL        H2O(L)                       0.2500000   -285841.390    298.000
 OXIDANT     O2                           1.0000000        -4.407    298.000

 O/F=    1.20000  %FUEL= 45.454545  R,EQ.RATIO= 1.215652  PHI,EQ.RATIO= 1.302361

                 CHAMBER   THROAT     EXIT     EXIT
 Pinf/P            1.0000   1.7302   40.655   42.503
 P, BAR            11.000   6.3576  0.27057  0.25881
 T, K             2984.35  2829.15  1854.70  1841.23
 RHO, KG/CU M    9.9144-1 6.1033-1 4.0503-2 3.9027-2
 H, KJ/KG        -3856.81 -4446.37 -7139.26 -7168.85
 U, KJ/KG        -4966.32 -5488.03 -7807.28 -7832.00
 G, KJ/KG        -40344.0 -39036.0 -29815.1 -29680.0
 S, KJ/(KG)(K)    12.2262  12.2262  12.2262  12.2262

 M, (1/n)          22.364   22.582   23.085   23.085
 (dLV/dLP)t      -1.01817 -1.01293 -1.00013 -1.00012
 (dLV/dLT)p        1.3890   1.2926   1.0040   1.0037
 Cp, KJ/(KG)(K)    5.4270   4.7499   2.2075   2.2015
 GAMMAs            1.1287   1.1320   1.1967   1.1972
 SON VEL,M/SEC     1119.0   1085.9    894.1    891.0
 MACH NUMBER        0.000    1.000    2.866    2.889

 PERFORMANCE PARAMETERS

 Ae/At                     1.00000   6.3861   6.5981
 CSTAR, M/SEC               1659.8   1659.8   1659.8
 CF                         0.6542   1.5437   1.5506
 Ivac, M/SEC                2045.2   2822.9   2831.4
 Isp, M/SEC                 1085.9   2562.2   2573.7


 MOLE FRACTIONS

 *CO              0.17486  0.16915  0.14063  0.14009
 *CO2             0.15613  0.16507  0.20102  0.20157
 *H               0.01295  0.01017  0.00034  0.00031
 HO2              0.00001  0.00001  0.00000  0.00000
 *H2              0.08126  0.07986  0.09725  0.09779
 H2O              0.53466  0.54787  0.56060  0.56009
 *O               0.00272  0.00160  0.00000  0.00000
 *OH              0.03030  0.02191  0.00016  0.00015
 *O2              0.00709  0.00438  0.00000  0.00000

  * THERMODYNAMIC PROPERTIES FITTED TO 20000.K

    PRODUCTS WHICH WERE CONSIDERED BUT WHOSE MOLE FRACTIONS
    WERE LESS THAN 5.000000E-06 FOR ALL ASSIGNED CONDITIONS

 *C              *CH             CH2             CH3             CH2OH          
 CH3O            CH4             CH3OH           CH3OOH          COOH           
 *C2             C2H             C2H2,acetylene  C2H2,vinylidene CH2CO,ketene   
 O(CH)2O         HO(CO)2OH       C2H3,vinyl      CH3CO,acetyl    C2H4           
 C2H4O,ethylen-o CH3CHO,ethanal  CH3COOH         OHCH2COOH       C2H5           
 C2H6            C2H5OH          CH3OCH3         CH3O2CH3        C2O            
 *C3             C3H3,1-propynl  C3H3,2-propynl  C3H4,allene     C3H4,propyne   
 C3H4,cyclo-     C3H5,allyl      C3H6,propylene  C3H6,cyclo-     C3H6O,propylox 
 C3H6O,acetone   C3H6O,propanal  C3H7,n-propyl   C3H7,i-propyl   C3H8           
 C3H8O,1propanol C3H8O,2propanol C3O2            *C4             C4H2,butadiyne 
 C4H4,1,3-cyclo- C4H6,butadiene  C4H6,1butyne    C4H6,2butyne    C4H6,cyclo-    
 C4H8,1-butene   C4H8,cis2-buten C4H8,tr2-butene C4H8,isobutene  C4H8,cyclo-    
 (CH3COOH)2      C4H9,n-butyl    C4H9,i-butyl    C4H9,s-butyl    C4H9,t-butyl   
 C4H10,n-butane  C4H10,isobutane *C5             C5H6,1,3cyclo-  C5H8,cyclo-    
 C5H10,1-pentene C5H10,cyclo-    C5H11,pentyl    C5H11,t-pentyl  C5H12,n-pentane
 C5H12,i-pentane CH3C(CH3)2CH3   C6H2            C6H5,phenyl     C6H5O,phenoxy  
 C6H6            C6H5OH,phenol   C6H10,cyclo-    C6H12,1-hexene  C6H12,cyclo-   
 C6H13,n-hexyl   C6H14,n-hexane  C7H7,benzyl     C7H8            C7H8O,cresol-mx
 C7H14,1-heptene C7H15,n-heptyl  C7H16,n-heptane C7H16,2-methylh C8H8,styrene   
 C8H10,ethylbenz C8H16,1-octene  C8H17,n-octyl   C8H18,n-octane  C8H18,isooctane
 C9H19,n-nonyl   C10H8,naphthale C10H21,n-decyl  C12H9,o-bipheny C12H10,biphenyl
 HCO             HCCO            HCHO,formaldehy HCOOH           H2O2           
 (HCOOH)2        O3              C(gr)           H2O(cr)         H2O(L)         

 NOTE. WEIGHT FRACTION OF FUEL IN TOTAL FUELS AND OF OXIDANT IN TOTAL OXIDANTS






 POINT ITN      T            C           H           O 
   1    2    2991.245     -16.467     -10.431     -16.385
 Pinf/Pt = 1.728322
   2    4    2834.828     -16.680     -10.618     -16.798
 Pinf/Pt = 1.730704
   2    2    2834.434     -16.680     -10.619     -16.799
   3    5    2102.514     -16.503     -11.245     -20.032
   4    3    2071.719     -16.449     -11.264     -20.231
   5    3    2043.736     -16.396     -11.281     -20.417
   6    3    2018.126     -16.346     -11.296     -20.592
   7    3    1994.541     -16.297     -11.311     -20.758
   8    3    1972.705     -16.250     -11.324     -20.915





              THEORETICAL ROCKET PERFORMANCE ASSUMING EQUILIBRIUM

           COMPOSITION DURING EXPANSION FROM INFINITE AREA COMBUSTOR

 Pin =   174.0 PSIA
 CASE = ethanol-75-gox 

             REACTANT                    WT FRACTION      ENERGY      TEMP
                                          (SEE NOTE)     KJ/KG-MOL      K  
 FUEL        C2H5OH(L)                    0.7500000   -277526.835    298.000
 FUEL        H2O(L)                       0.2500000   -285841.390    298.000
 OXIDANT     O2                           1.0000000        -4.407    298.000

 O/F=    1.20000  %FUEL= 45.454545  R,EQ.RATIO= 1.215652  PHI,EQ.RATIO= 1.302361

                 CHAMBER   THROAT     EXIT     EXIT     EXIT     EXIT     EXIT     EXIT
 Pinf/P            1.0000   1.7307   18.480   20.327   22.175   24.023   25.871   27.719
 P, BAR            12.000   6.9336  0.64937  0.59033  0.54114  0.49951  0.46383  0.43291
 T, K             2991.25  2834.43  2102.51  2071.72  2043.74  2018.13  1994.54  1972.70
 RHO, KG/CU M    1.0798 0 6.6476-1 8.5676-2 7.9059-2 7.3473-2 6.8690-2 6.4544-2 6.0912-2
 H, KJ/KG        -3856.81 -4447.54 -6579.51 -6651.21 -6715.74 -6774.32 -6827.89 -6877.20
 U, KJ/KG        -4968.13 -5490.56 -7337.44 -7397.91 -7452.25 -7501.52 -7546.53 -7587.91
 G, KJ/KG        -40331.6 -39010.2 -32217.2 -31913.4 -31636.7 -31383.0 -31149.0 -30932.0
 S, KJ/(KG)(K)    12.1938  12.1938  12.1938  12.1938  12.1938  12.1938  12.1938  12.1938

 M, (1/n)          22.380   22.595   23.065   23.069   23.072   23.074   23.077   23.078
 (dLV/dLP)t      -1.01780 -1.01260 -1.00058 -1.00048 -1.00041 -1.00035 -1.00030 -1.00026
 (dLV/dLT)p        1.3804   1.2847   1.0168   1.0142   1.0122   1.0105   1.0092   1.0081
 Cp, KJ/(KG)(K)    5.3509   4.6794   2.3802   2.3492   2.3239   2.3029   2.2851   2.2700
 GAMMAs            1.1293   1.1327   1.1849   1.1867   1.1883   1.1897   1.1909   1.1919
 SON VEL,M/SEC     1120.3   1087.0    947.7    941.3    935.5    930.1    925.1    920.4
 MACH NUMBER        0.000    1.000    2.462    2.511    2.556    2.597    2.635    2.670

 PERFORMANCE PARAMETERS

 Ae/At                      1.0000   3.6141   3.8660   4.1127   4.3547   4.5925   4.8264
 CSTAR, M/SEC               1660.7   1660.7   1660.7   1660.7   1660.7   1660.7   1660.7
 CF                         0.6545   1.4051   1.4235   1.4398   1.4545   1.4678   1.4799
 Ivac, M/SEC                2046.5   2658.3   2679.9   2699.2   2716.6   2732.5   2747.0
 Isp, M/SEC                 1086.9   2333.5   2364.1   2391.2   2415.6   2437.7   2457.8


 MOLE FRACTIONS

 *CO              0.17472  0.16903  0.14892  0.14803  0.14720  0.14640  0.14565  0.14493
 *CO2             0.15650  0.16537  0.19244  0.19339  0.19427  0.19510  0.19589  0.19663
 *H               0.01265  0.00990  0.00117  0.00102  0.00089  0.00079  0.00070  0.00062
 HO2              0.00001  0.00001  0.00000  0.00000  0.00000  0.00000  0.00000  0.00000
 *H2              0.08100  0.07965  0.08880  0.08970  0.09055  0.09136  0.09213  0.09287
 H2O              0.53571  0.54877  0.56763  0.56702  0.56639  0.56577  0.56514  0.56453
 *O               0.00263  0.00153  0.00001  0.00001  0.00000  0.00000  0.00000  0.00000
 *OH              0.02990  0.02152  0.00101  0.00082  0.00068  0.00057  0.00048  0.00041
 *O2              0.00688  0.00421  0.00002  0.00002  0.00001  0.00001  0.00001  0.00000

  * THERMODYNAMIC PROPERTIES FITTED TO 20000.K

    PRODUCTS WHICH WERE CONSIDERED BUT WHOSE MOLE FRACTIONS
    WERE LESS THAN 5.000000E-06 FOR ALL ASSIGNED CONDITIONS

 *C              *CH             CH2             CH3             CH2OH          
 CH3O            CH4             CH3OH           CH3OOH          COOH           
 *C2             C2H             C2H2,acetylene  C2H2,vinylidene CH2CO,ketene   
 O(CH)2O         HO(CO)2OH       C2H3,vinyl      CH3CO,acetyl    C2H4           
 C2H4O,ethylen-o CH3CHO,ethanal  CH3COOH         OHCH2COOH       C2H5           
 C2H6            C2H5OH          CH3OCH3         CH3O2CH3        C2O            
 *C3             C3H3,1-propynl  C3H3,2-propynl  C3H4,allene     C3H4,propyne   
 C3H4,cyclo-     C3H5,allyl      C3H6,propylene  C3H6,cyclo-     C3H6O,propylox 
 C3H6O,acetone   C3H6O,propanal  C3H7,n-propyl   C3H7,i-propyl   C3H8           
 C3H8O,1propanol C3H8O,2propanol C3O2            *C4             C4H2,butadiyne 
 C4H4,1,3-cyclo- C4H6,butadiene  C4H6,1butyne    C4H6,2butyne    C4H6,cyclo-    
 C4H8,1-butene   C4H8,cis2-buten C4H8,tr2-butene C4H8,isobutene  C4H8,cyclo-    
 (CH3COOH)2      C4H9,n-butyl    C4H9,i-butyl    C4H9,s-butyl    C4H9,t-butyl   
 C4H10,n-butane  C4H10,isobutane *C5             C5H6,1,3cyclo-  C5H8,cyclo-    
 C5H10,1-pentene C5H10,cyclo-    C5H11,pentyl    C5H11,t-pentyl  C5H12,n-pentane
 C5H12,i-pentane CH3C(CH3)2CH3   C6H2            C6H5,phenyl     C6H5O,phenoxy  
 C6H6            C6H5OH,phenol   C6H10,cyclo-    C6H12,1-hexene  C6H12,cyclo-   
 C6H13,n-hexyl   C6H14,n-hexane  C7H7,benzyl     C7H8            C7H8O,cresol-mx
 C7H14,1-heptene C7H15,n-heptyl  C7H16,n-heptane C7H16,2-methylh C8H8,styrene   
 C8H10,ethylbenz C8H16,1-octene  C8H17,n-octyl   C8H18,n-octane  C8H18,isooctane
 C9H19,n-nonyl   C10H8,naphthale C10H21,n-decyl  C12H9,o-bipheny C12H10,biphenyl
 HCO             HCCO            HCHO,formaldehy HCOOH           H2O2           
 (HCOOH)2        O3              C(gr)           H2O(cr)         H2O(L)         

 NOTE. WEIGHT FRACTION OF FUEL IN TOTAL FUELS AND OF OXIDANT IN TOTAL OXIDANTS





   3    3    1952.391     -16.205     -11.336     -21.064
   4    3    1933.414     -16.161     -11.347     -21.207
   5    3    1915.621     -16.119     -11.358     -21.344
   6    3    1898.882     -16.077     -11.368     -21.475
   7    3    1883.086     -16.037     -11.377     -21.601
   8    3    1868.141     -15.999     -11.386     -21.723





              THEORETICAL ROCKET PERFORMANCE ASSUMING EQUILIBRIUM

           COMPOSITION DURING EXPANSION FROM INFINITE AREA COMBUSTOR

 Pin =   174.0 PSIA
 CASE = ethanol-75-gox 

             REACTANT                    WT FRACTION      ENERGY      TEMP
                                          (SEE NOTE)     KJ/KG-MOL      K  
 FUEL        C2H5OH(L)                    0.7500000   -277526.835    298.000
 FUEL        H2O(L)                       0.2500000   -285841.390    298.000
 OXIDANT     O2                           1.0000000        -4.407    298.000

 O/F=    1.20000  %FUEL= 45.454545  R,EQ.RATIO= 1.215652  PHI,EQ.RATIO= 1.302361

                 CHAMBER   THROAT     EXIT     EXIT     EXIT     EXIT     EXIT     EXIT
 Pinf/P            1.0000   1.7307   29.567   31.415   33.263   35.111   36.959   38.807
 P, BAR            12.000   6.9336  0.40585  0.38198  0.36076  0.34177  0.32468  0.30922
 T, K             2991.25  2834.43  1952.39  1933.41  1915.62  1898.88  1883.09  1868.14
 RHO, KG/CU M    1.0798 0 6.6476-1 5.7703-2 5.4845-2 5.2281-2 4.9968-2 4.7869-2 4.5956-2
 H, KJ/KG        -3856.81 -4447.54 -6922.83 -6965.26 -7004.89 -7042.03 -7076.97 -7109.93
 U, KJ/KG        -4968.13 -5490.56 -7626.18 -7661.74 -7694.92 -7726.01 -7755.24 -7782.80
 G, KJ/KG        -40331.6 -39010.2 -30730.0 -30541.0 -30363.7 -30196.7 -30039.0 -29889.7
 S, KJ/(KG)(K)    12.1938  12.1938  12.1938  12.1938  12.1938  12.1938  12.1938  12.1938

 M, (1/n)          22.380   22.595   23.080   23.081   23.082   23.083   23.084   23.084
 (dLV/dLP)t      -1.01780 -1.01260 -1.00023 -1.00021 -1.00018 -1.00016 -1.00015 -1.00013
 (dLV/dLT)p        1.3804   1.2847   1.0071   1.0064   1.0057   1.0051   1.0046   1.0042
 Cp, KJ/(KG)(K)    5.3509   4.6794   2.2569   2.2455   2.2355   2.2266   2.2187   2.2115
 GAMMAs            1.1293   1.1327   1.1929   1.1937   1.1944   1.1951   1.1957   1.1963
 SON VEL,M/SEC     1120.3   1087.0    916.0    911.8    907.9    904.1    900.6    897.2
 MACH NUMBER        0.000    1.000    2.703    2.735    2.764    2.792    2.818    2.843

 PERFORMANCE PARAMETERS

 Ae/At                      1.0000   5.0568   5.2839   5.5080   5.7293   5.9479   6.1641
 CSTAR, M/SEC               1660.7   1660.7   1660.7   1660.7   1660.7   1660.7   1660.7
 CF                         0.6545   1.4911   1.5014   1.5109   1.5198   1.5281   1.5359
 Ivac, M/SEC                2046.5   2760.3   2772.7   2784.2   2795.0   2805.0   2814.5
 Isp, M/SEC                 1086.9   2476.3   2493.4   2509.2   2524.0   2537.8   2550.7


 MOLE FRACTIONS

 *CO              0.17472  0.16903  0.14424  0.14358  0.14294  0.14233  0.14173  0.14116
 *CO2             0.15650  0.16537  0.19734  0.19802  0.19867  0.19930  0.19991  0.20049
 *H               0.01265  0.00990  0.00056  0.00051  0.00046  0.00042  0.00038  0.00035
 HO2              0.00001  0.00001  0.00000  0.00000  0.00000  0.00000  0.00000  0.00000
 *H2              0.08100  0.07965  0.09357  0.09425  0.09490  0.09552  0.09613  0.09671
 H2O              0.53571  0.54877  0.56393  0.56334  0.56276  0.56220  0.56165  0.56111
 *O               0.00263  0.00153  0.00000  0.00000  0.00000  0.00000  0.00000  0.00000
 *OH              0.02990  0.02152  0.00035  0.00030  0.00026  0.00023  0.00020  0.00018
 *O2              0.00688  0.00421  0.00000  0.00000  0.00000  0.00000  0.00000  0.00000

  * THERMODYNAMIC PROPERTIES FITTED TO 20000.K

    PRODUCTS WHICH WERE CONSIDERED BUT WHOSE MOLE FRACTIONS
    WERE LESS THAN 5.000000E-06 FOR ALL ASSIGNED CONDITIONS

 *C              *CH             CH2             CH3             CH2OH          
 CH3O            CH4             CH3OH           CH3OOH          COOH           
 *C2             C2H             C2H2,acetylene  C2H2,vinylidene CH2CO,ketene   
 O(CH)2O         HO(CO)2OH       C2H3,vinyl      CH3CO,acetyl    C2H4           
 C2H4O,ethylen-o CH3CHO,ethanal  CH3COOH         OHCH2COOH       C2H5           
 C2H6            C2H5OH          CH3OCH3         CH3O2CH3        C2O            
 *C3             C3H3,1-propynl  C3H3,2-propynl  C3H4,allene     C3H4,propyne   
 C3H4,cyclo-     C3H5,allyl      C3H6,propylene  C3H6,cyclo-     C3H6O,propylox 
 C3H6O,acetone   C3H6O,propanal  C3H7,n-propyl   C3H7,i-propyl   C3H8           
 C3H8O,1propanol C3H8O,2propanol C3O2            *C4             C4H2,butadiyne 
 C4H4,1,3-cyclo- C4H6,butadiene  C4H6,1butyne    C4H6,2butyne    C4H6,cyclo-    
 C4H8,1-butene   C4H8,cis2-buten C4H8,tr2-butene C4H8,isobutene  C4H8,cyclo-    
 (CH3COOH)2      C4H9,n-butyl    C4H9,i-butyl    C4H9,s-butyl    C4H9,t-butyl   
 C4H10,n-butane  C4H10,isobutane *C5             C5H6,1,3cyclo-  C5H8,cyclo-    
 C5H10,1-pentene C5H10,cyclo-    C5H11,pentyl    C5H11,t-pentyl  C5H12,n-pentane
 C5H12,i-pentane CH3C(CH3)2CH3   C6H2            C6H5,phenyl     C6H5O,phenoxy  
 C6H6            C6H5OH,phenol   C6H10,cyclo-    C6H12,1-hexene  C6H12,cyclo-   
 C6H13,n-hexyl   C6H14,n-hexane  C7H7,benzyl     C7H8            C7H8O,cresol-mx
 C7H14,1-heptene C7H15,n-heptyl  C7H16,n-heptane C7H16,2-methylh C8H8,styrene   
 C8H10,ethylbenz C8H16,1-octene  C8H17,n-octyl   C8H18,n-octane  C8H18,isooctane
 C9H19,n-nonyl   C10H8,naphthale C10H21,n-decyl  C12H9,o-bipheny C12H10,biphenyl
 HCO             HCCO            HCHO,formaldehy HCOOH           H2O2           
 (HCOOH)2        O3              C(gr)           H2O(cr)         H2O(L)         

 NOTE. WEIGHT FRACTION OF FUEL IN TOTAL FUELS AND OF OXIDANT IN TOTAL OXIDANTS





   3    3    1853.963     -15.961     -11.394     -21.840
   4    3    1840.485     -15.924     -11.402     -21.953





              THEORETICAL ROCKET PERFORMANCE ASSUMING EQUILIBRIUM

           COMPOSITION DURING EXPANSION FROM INFINITE AREA COMBUSTOR

 Pin =   174.0 PSIA
 CASE = ethanol-75-gox 

             REACTANT                    WT FRACTION      ENERGY      TEMP
                                          (SEE NOTE)     KJ/KG-MOL      K  
 FUEL        C2H5OH(L)                    0.7500000   -277526.835    298.000
 FUEL        H2O(L)                       0.2500000   -285841.390    298.000
 OXIDANT     O2                           1.0000000        -4.407    298.000

 O/F=    1.20000  %FUEL= 45.454545  R,EQ.RATIO= 1.215652  PHI,EQ.RATIO= 1.302361

                 CHAMBER   THROAT     EXIT     EXIT
 Pinf/P            1.0000   1.7307   40.655   42.503
 P, BAR            12.000   6.9336  0.29517  0.28233
 T, K             2991.25  2834.43  1853.96  1840.48
 RHO, KG/CU M    1.0798 0 6.6476-1 4.4204-2 4.2592-2
 H, KJ/KG        -3856.81 -4447.54 -7141.11 -7170.69
 U, KJ/KG        -4968.13 -5490.56 -7808.86 -7833.56
 G, KJ/KG        -40331.6 -39010.2 -29748.0 -29613.3
 S, KJ/(KG)(K)    12.1938  12.1938  12.1938  12.1938

 M, (1/n)          22.380   22.595   23.085   23.085
 (dLV/dLP)t      -1.01780 -1.01260 -1.00012 -1.00011
 (dLV/dLT)p        1.3804   1.2847   1.0038   1.0035
 Cp, KJ/(KG)(K)    5.3509   4.6794   2.2051   2.1993
 GAMMAs            1.1293   1.1327   1.1968   1.1973
 SON VEL,M/SEC     1120.3   1087.0    894.0    890.9
 MACH NUMBER        0.000    1.000    2.867    2.890

 PERFORMANCE PARAMETERS

 Ae/At                      1.0000   6.3780   6.5897
 CSTAR, M/SEC               1660.7   1660.7   1660.7
 CF                         0.6545   1.5432   1.5502
 Ivac, M/SEC                2046.5   2823.5   2831.9
 Isp, M/SEC                 1086.9   2562.9   2574.4


 MOLE FRACTIONS

 *CO              0.17472  0.16903  0.14060  0.14006
 *CO2             0.15650  0.16537  0.20105  0.20160
 *H               0.01265  0.00990  0.00032  0.00029
 HO2              0.00001  0.00001  0.00000  0.00000
 *H2              0.08100  0.07965  0.09728  0.09783
 H2O              0.53571  0.54877  0.56059  0.56007
 *O               0.00263  0.00153  0.00000  0.00000
 *OH              0.02990  0.02152  0.00016  0.00014
 *O2              0.00688  0.00421  0.00000  0.00000

  * THERMODYNAMIC PROPERTIES FITTED TO 20000.K

    PRODUCTS WHICH WERE CONSIDERED BUT WHOSE MOLE FRACTIONS
    WERE LESS THAN 5.000000E-06 FOR ALL ASSIGNED CONDITIONS

 *C              *CH             CH2             CH3             CH2OH          
 CH3O            CH4             CH3OH           CH3OOH          COOH           
 *C2             C2H             C2H2,acetylene  C2H2,vinylidene CH2CO,ketene   
 O(CH)2O         HO(CO)2OH       C2H3,vinyl      CH3CO,acetyl    C2H4           
 C2H4O,ethylen-o CH3CHO,ethanal  CH3COOH         OHCH2COOH       C2H5           
 C2H6            C2H5OH          CH3OCH3         CH3O2CH3        C2O            
 *C3             C3H3,1-propynl  C3H3,2-propynl  C3H4,allene     C3H4,propyne   
 C3H4,cyclo-     C3H5,allyl      C3H6,propylene  C3H6,cyclo-     C3H6O,propylox 
 C3H6O,acetone   C3H6O,propanal  C3H7,n-propyl   C3H7,i-propyl   C3H8           
 C3H8O,1propanol C3H8O,2propanol C3O2            *C4             C4H2,butadiyne 
 C4H4,1,3-cyclo- C4H6,butadiene  C4H6,1butyne    C4H6,2butyne    C4H6,cyclo-    
 C4H8,1-butene   C4H8,cis2-buten C4H8,tr2-butene C4H8,isobutene  C4H8,cyclo-    
 (CH3COOH)2      C4H9,n-butyl    C4H9,i-butyl    C4H9,s-butyl    C4H9,t-butyl   
 C4H10,n-butane  C4H10,isobutane *C5             C5H6,1,3cyclo-  C5H8,cyclo-    
 C5H10,1-pentene C5H10,cyclo-    C5H11,pentyl    C5H11,t-pentyl  C5H12,n-pentane
 C5H12,i-pentane CH3C(CH3)2CH3   C6H2            C6H5,phenyl     C6H5O,phenoxy  
 C6H6            C6H5OH,phenol   C6H10,cyclo-    C6H12,1-hexene  C6H12,cyclo-   
 C6H13,n-hexyl   C6H14,n-hexane  C7H7,benzyl     C7H8            C7H8O,cresol-mx
 C7H14,1-heptene C7H15,n-heptyl  C7H16,n-heptane C7H16,2-methylh C8H8,styrene   
 C8H10,ethylbenz C8H16,1-octene  C8H17,n-octyl   C8H18,n-octane  C8H18,isooctane
 C9H19,n-nonyl   C10H8,naphthale C10H21,n-decyl  C12H9,o-bipheny C12H10,biphenyl
 HCO             HCCO            HCHO,formaldehy HCOOH           H2O2           
 (HCOOH)2        O3              C(gr)           H2O(cr)         H2O(L)         

 NOTE. WEIGHT FRACTION OF FUEL IN TOTAL FUELS AND OF OXIDANT IN TOTAL OXIDANTS






 POINT ITN      T            C           H           O 
   1    2    2997.548     -16.409     -10.396     -16.363
 Pinf/Pt = 1.728684
   2    4    2839.652     -16.617     -10.583     -16.779
 Pinf/Pt = 1.731154
   2    2    2839.239     -16.618     -10.583     -16.780
   3    5    2102.160     -16.421     -11.205     -20.034
   4    3    2071.296     -16.366     -11.224     -20.233
   5    3    2043.261     -16.314     -11.241     -20.420
   6    3    2017.608     -16.263     -11.256     -20.595
   7    3    1993.990     -16.214     -11.270     -20.761
   8    3    1972.127     -16.167     -11.283     -20.919





              THEORETICAL ROCKET PERFORMANCE ASSUMING EQUILIBRIUM

           COMPOSITION DURING EXPANSION FROM INFINITE AREA COMBUSTOR

 Pin =   188.5 PSIA
 CASE = ethanol-75-gox 

             REACTANT                    WT FRACTION      ENERGY      TEMP
                                          (SEE NOTE)     KJ/KG-MOL      K  
 FUEL        C2H5OH(L)                    0.7500000   -277526.835    298.000
 FUEL        H2O(L)                       0.2500000   -285841.390    298.000
 OXIDANT     O2                           1.0000000        -4.407    298.000

 O/F=    1.20000  %FUEL= 45.454545  R,EQ.RATIO= 1.215652  PHI,EQ.RATIO= 1.302361

                 CHAMBER   THROAT     EXIT     EXIT     EXIT     EXIT     EXIT     EXIT
 Pinf/P            1.0000   1.7312   18.480   20.327   22.175   24.023   25.871   27.719
 P, BAR            13.000   7.5094  0.70348  0.63953  0.58623  0.54114  0.50249  0.46899
 T, K             2997.55  2839.24  2102.16  2071.30  2043.26  2017.61  1993.99  1972.13
 RHO, KG/CU M    1.1680 0 7.1913-1 9.2836-2 8.5668-2 7.9618-2 7.4436-2 6.9944-2 6.6009-2
 H, KJ/KG        -3856.81 -4448.61 -6581.35 -6653.03 -6717.55 -6776.11 -6829.67 -6878.96
 U, KJ/KG        -4969.78 -5492.86 -7339.12 -7399.55 -7453.86 -7503.10 -7548.08 -7589.45
 G, KJ/KG        -40319.3 -38985.4 -32152.2 -31848.5 -31572.0 -31318.5 -31084.8 -30868.1
 S, KJ/(KG)(K)    12.1641  12.1641  12.1641  12.1641  12.1641  12.1641  12.1641  12.1641

 M, (1/n)          22.393   22.607   23.066   23.070   23.073   23.075   23.077   23.079
 (dLV/dLP)t      -1.01745 -1.01230 -1.00055 -1.00046 -1.00039 -1.00033 -1.00029 -1.00025
 (dLV/dLT)p        1.3725   1.2775   1.0161   1.0136   1.0116   1.0101   1.0088   1.0077
 Cp, KJ/(KG)(K)    5.2817   4.6155   2.3723   2.3424   2.3180   2.2977   2.2805   2.2659
 GAMMAs            1.1299   1.1335   1.1853   1.1871   1.1887   1.1900   1.1912   1.1922
 SON VEL,M/SEC     1121.4   1087.9    947.7    941.4    935.5    930.1    925.1    920.3
 MACH NUMBER        0.000    1.000    2.463    2.512    2.557    2.598    2.636    2.671

 PERFORMANCE PARAMETERS

 Ae/At                      1.0000   3.6102   3.8618   4.1081   4.3499   4.5873   4.8209
 CSTAR, M/SEC               1661.6   1661.6   1661.6   1661.6   1661.6   1661.6   1661.6
 CF                         0.6547   1.4048   1.4232   1.4395   1.4542   1.4675   1.4796
 Ivac, M/SEC                2047.8   2658.9   2680.5   2699.8   2717.2   2733.0   2747.5
 Isp, M/SEC                 1087.9   2334.3   2364.8   2392.0   2416.3   2438.4   2458.5


 MOLE FRACTIONS

 *CO              0.17458  0.16893  0.14892  0.14802  0.14718  0.14639  0.14563  0.14491
 *CO2             0.15684  0.16565  0.19246  0.19341  0.19429  0.19512  0.19591  0.19666
 *H               0.01237  0.00966  0.00112  0.00098  0.00085  0.00075  0.00067  0.00060
 HO2              0.00001  0.00001  0.00000  0.00000  0.00000  0.00000  0.00000  0.00000
 *H2              0.08077  0.07946  0.08882  0.08972  0.09057  0.09139  0.09216  0.09289
 H2O              0.53666  0.54959  0.56769  0.56706  0.56643  0.56579  0.56516  0.56454
 *O               0.00255  0.00147  0.00001  0.00001  0.00000  0.00000  0.00000  0.00000
 *OH              0.02952  0.02116  0.00096  0.00079  0.00065  0.00054  0.00046  0.00039
 *O2              0.00669  0.00406  0.00002  0.00001  0.00001  0.00001  0.00001  0.00000

  * THERMODYNAMIC PROPERTIES FITTED TO 20000.K

    PRODUCTS WHICH WERE CONSIDERED BUT WHOSE MOLE FRACTIONS
    WERE LESS THAN 5.000000E-06 FOR ALL ASSIGNED CONDITIONS

 *C              *CH             CH2             CH3             CH2OH          
 CH3O            CH4             CH3OH           CH3OOH          COOH           
 *C2             C2H             C2H2,acetylene  C2H2,vinylidene CH2CO,ketene   
 O(CH)2O         HO(CO)2OH       C2H3,vinyl      CH3CO,acetyl    C2H4           
 C2H4O,ethylen-o CH3CHO,ethanal  CH3COOH         OHCH2COOH       C2H5           
 C2H6            C2H5OH          CH3OCH3         CH3O2CH3        C2O            
 *C3             C3H3,1-propynl  C3H3,2-propynl  C3H4,allene     C3H4,propyne   
 C3H4,cyclo-     C3H5,allyl      C3H6,propylene  C3H6,cyclo-     C3H6O,propylox 
 C3H6O,acetone   C3H6O,propanal  C3H7,n-propyl   C3H7,i-propyl   C3H8           
 C3H8O,1propanol C3H8O,2propanol C3O2            *C4             C4H2,butadiyne 
 C4H4,1,3-cyclo- C4H6,butadiene  C4H6,1butyne    C4H6,2butyne    C4H6,cyclo-    
 C4H8,1-butene   C4H8,cis2-buten C4H8,tr2-butene C4H8,isobutene  C4H8,cyclo-    
 (CH3COOH)2      C4H9,n-butyl    C4H9,i-butyl    C4H9,s-butyl    C4H9,t-butyl   
 C4H10,n-butane  C4H10,isobutane *C5             C5H6,1,3cyclo-  C5H8,cyclo-    
 C5H10,1-pentene C5H10,cyclo-    C5H11,pentyl    C5H11,t-pentyl  C5H12,n-pentane
 C5H12,i-pentane CH3C(CH3)2CH3   C6H2            C6H5,phenyl     C6H5O,phenoxy  
 C6H6            C6H5OH,phenol   C6H10,cyclo-    C6H12,1-hexene  C6H12,cyclo-   
 C6H13,n-hexyl   C6H14,n-hexane  C7H7,benzyl     C7H8            C7H8O,cresol-mx
 C7H14,1-heptene C7H15,n-heptyl  C7H16,n-heptane C7H16,2-methylh C8H8,styrene   
 C8H10,ethylbenz C8H16,1-octene  C8H17,n-octyl   C8H18,n-octane  C8H18,isooctane
 C9H19,n-nonyl   C10H8,naphthale C10H21,n-decyl  C12H9,o-bipheny C12H10,biphenyl
 HCO             HCCO            HCHO,formaldehy HCOOH           H2O2           
 (HCOOH)2        O3              C(gr)           H2O(cr)         H2O(L)         

 NOTE. WEIGHT FRACTION OF FUEL IN TOTAL FUELS AND OF OXIDANT IN TOTAL OXIDANTS





   3    3    1951.792     -16.122     -11.295     -21.069
   4    3    1932.798     -16.078     -11.306     -21.212
   5    3    1914.991     -16.035     -11.317     -21.349
   6    3    1898.240     -15.994     -11.327     -21.480
   7    3    1882.435     -15.954     -11.336     -21.607
   8    3    1867.481     -15.915     -11.345     -21.728





              THEORETICAL ROCKET PERFORMANCE ASSUMING EQUILIBRIUM

           COMPOSITION DURING EXPANSION FROM INFINITE AREA COMBUSTOR

 Pin =   188.5 PSIA
 CASE = ethanol-75-gox 

             REACTANT                    WT FRACTION      ENERGY      TEMP
                                          (SEE NOTE)     KJ/KG-MOL      K  
 FUEL        C2H5OH(L)                    0.7500000   -277526.835    298.000
 FUEL        H2O(L)                       0.2500000   -285841.390    298.000
 OXIDANT     O2                           1.0000000        -4.407    298.000

 O/F=    1.20000  %FUEL= 45.454545  R,EQ.RATIO= 1.215652  PHI,EQ.RATIO= 1.302361

                 CHAMBER   THROAT     EXIT     EXIT     EXIT     EXIT     EXIT     EXIT
 Pinf/P            1.0000   1.7312   29.567   31.415   33.263   35.111   36.959   38.807
 P, BAR            13.000   7.5094  0.43968  0.41381  0.39082  0.37025  0.35174  0.33499
 T, K             2997.55  2839.24  1951.79  1932.80  1914.99  1898.24  1882.43  1867.48
 RHO, KG/CU M    1.1680 0 7.1913-1 6.2532-2 5.9435-2 5.6657-2 5.4151-2 5.1877-2 4.9804-2
 H, KJ/KG        -3856.81 -4448.61 -6924.57 -6966.99 -7006.60 -7043.73 -7078.66 -7111.61
 U, KJ/KG        -4969.78 -5492.86 -7627.69 -7663.23 -7696.40 -7727.48 -7756.69 -7784.23
 G, KJ/KG        -40319.3 -38985.4 -30666.4 -30477.8 -30300.8 -30134.1 -29976.8 -29827.8
 S, KJ/(KG)(K)    12.1641  12.1641  12.1641  12.1641  12.1641  12.1641  12.1641  12.1641

 M, (1/n)          22.393   22.607   23.080   23.081   23.082   23.083   23.084   23.085
 (dLV/dLP)t      -1.01745 -1.01230 -1.00022 -1.00020 -1.00017 -1.00016 -1.00014 -1.00013
 (dLV/dLT)p        1.3725   1.2775   1.0068   1.0061   1.0054   1.0049   1.0044   1.0040
 Cp, KJ/(KG)(K)    5.2817   4.6155   2.2532   2.2422   2.2325   2.2238   2.2162   2.2093
 GAMMAs            1.1299   1.1335   1.1931   1.1939   1.1947   1.1953   1.1959   1.1965
 SON VEL,M/SEC     1121.4   1087.9    915.9    911.7    907.8    904.0    900.5    897.1
 MACH NUMBER        0.000    1.000    2.704    2.736    2.765    2.793    2.819    2.844

 PERFORMANCE PARAMETERS

 Ae/At                      1.0000   5.0510   5.2779   5.5017   5.7227   5.9411   6.1570
 CSTAR, M/SEC               1661.6   1661.6   1661.6   1661.6   1661.6   1661.6   1661.6
 CF                         0.6547   1.4907   1.5010   1.5105   1.5194   1.5277   1.5355
 Ivac, M/SEC                2047.8   2760.9   2773.2   2784.7   2795.5   2805.5   2815.0
 Isp, M/SEC                 1087.9   2477.0   2494.1   2509.9   2524.6   2538.4   2551.4


 MOLE FRACTIONS

 *CO              0.17458  0.16893  0.14422  0.14356  0.14292  0.14231  0.14171  0.14114
 *CO2             0.15684  0.16565  0.19737  0.19805  0.19870  0.19933  0.19993  0.20052
 *H               0.01237  0.00966  0.00054  0.00048  0.00044  0.00040  0.00036  0.00033
 HO2              0.00001  0.00001  0.00000  0.00000  0.00000  0.00000  0.00000  0.00000
 *H2              0.08077  0.07946  0.09360  0.09428  0.09493  0.09555  0.09616  0.09674
 H2O              0.53666  0.54959  0.56394  0.56334  0.56276  0.56219  0.56164  0.56110
 *O               0.00255  0.00147  0.00000  0.00000  0.00000  0.00000  0.00000  0.00000
 *OH              0.02952  0.02116  0.00033  0.00029  0.00025  0.00022  0.00019  0.00017
 *O2              0.00669  0.00406  0.00000  0.00000  0.00000  0.00000  0.00000  0.00000

  * THERMODYNAMIC PROPERTIES FITTED TO 20000.K

    PRODUCTS WHICH WERE CONSIDERED BUT WHOSE MOLE FRACTIONS
    WERE LESS THAN 5.000000E-06 FOR ALL ASSIGNED CONDITIONS

 *C              *CH             CH2             CH3             CH2OH          
 CH3O            CH4             CH3OH           CH3OOH          COOH           
 *C2             C2H             C2H2,acetylene  C2H2,vinylidene CH2CO,ketene   
 O(CH)2O         HO(CO)2OH       C2H3,vinyl      CH3CO,acetyl    C2H4           
 C2H4O,ethylen-o CH3CHO,ethanal  CH3COOH         OHCH2COOH       C2H5           
 C2H6            C2H5OH          CH3OCH3         CH3O2CH3        C2O            
 *C3             C3H3,1-propynl  C3H3,2-propynl  C3H4,allene     C3H4,propyne   
 C3H4,cyclo-     C3H5,allyl      C3H6,propylene  C3H6,cyclo-     C3H6O,propylox 
 C3H6O,acetone   C3H6O,propanal  C3H7,n-propyl   C3H7,i-propyl   C3H8           
 C3H8O,1propanol C3H8O,2propanol C3O2            *C4             C4H2,butadiyne 
 C4H4,1,3-cyclo- C4H6,butadiene  C4H6,1butyne    C4H6,2butyne    C4H6,cyclo-    
 C4H8,1-butene   C4H8,cis2-buten C4H8,tr2-butene C4H8,isobutene  C4H8,cyclo-    
 (CH3COOH)2      C4H9,n-butyl    C4H9,i-butyl    C4H9,s-butyl    C4H9,t-butyl   
 C4H10,n-butane  C4H10,isobutane *C5             C5H6,1,3cyclo-  C5H8,cyclo-    
 C5H10,1-pentene C5H10,cyclo-    C5H11,pentyl    C5H11,t-pentyl  C5H12,n-pentane
 C5H12,i-pentane CH3C(CH3)2CH3   C6H2            C6H5,phenyl     C6H5O,phenoxy  
 C6H6            C6H5OH,phenol   C6H10,cyclo-    C6H12,1-hexene  C6H12,cyclo-   
 C6H13,n-hexyl   C6H14,n-hexane  C7H7,benzyl     C7H8            C7H8O,cresol-mx
 C7H14,1-heptene C7H15,n-heptyl  C7H16,n-heptane C7H16,2-methylh C8H8,styrene   
 C8H10,ethylbenz C8H16,1-octene  C8H17,n-octyl   C8H18,n-octane  C8H18,isooctane
 C9H19,n-nonyl   C10H8,naphthale C10H21,n-decyl  C12H9,o-bipheny C12H10,biphenyl
 HCO             HCCO            HCHO,formaldehy HCOOH           H2O2           
 (HCOOH)2        O3              C(gr)           H2O(cr)         H2O(L)         

 NOTE. WEIGHT FRACTION OF FUEL IN TOTAL FUELS AND OF OXIDANT IN TOTAL OXIDANTS





   3    3    1853.297     -15.877     -11.354     -21.845
   4    3    1839.814     -15.840     -11.362     -21.959





              THEORETICAL ROCKET PERFORMANCE ASSUMING EQUILIBRIUM

           COMPOSITION DURING EXPANSION FROM INFINITE AREA COMBUSTOR

 Pin =   188.5 PSIA
 CASE = ethanol-75-gox 

             REACTANT                    WT FRACTION      ENERGY      TEMP
                                          (SEE NOTE)     KJ/KG-MOL      K  
 FUEL        C2H5OH(L)                    0.7500000   -277526.835    298.000
 FUEL        H2O(L)                       0.2500000   -285841.390    298.000
 OXIDANT     O2                           1.0000000        -4.407    298.000

 O/F=    1.20000  %FUEL= 45.454545  R,EQ.RATIO= 1.215652  PHI,EQ.RATIO= 1.302361

                 CHAMBER   THROAT     EXIT     EXIT
 Pinf/P            1.0000   1.7312   40.655   42.503
 P, BAR            13.000   7.5094  0.31976  0.30586
 T, K             2997.55  2839.24  1853.30  1839.81
 RHO, KG/CU M    1.1680 0 7.1913-1 4.7905-2 4.6159-2
 H, KJ/KG        -3856.81 -4448.61 -7142.78 -7172.34
 U, KJ/KG        -4969.78 -5492.86 -7810.28 -7834.97
 G, KJ/KG        -40319.3 -38985.4 -29686.5 -29552.0
 S, KJ/(KG)(K)    12.1641  12.1641  12.1641  12.1641

 M, (1/n)          22.393   22.607   23.085   23.086
 (dLV/dLP)t      -1.01745 -1.01230 -1.00011 -1.00010
 (dLV/dLT)p        1.3725   1.2775   1.0036   1.0033
 Cp, KJ/(KG)(K)    5.2817   4.6155   2.2030   2.1973
 GAMMAs            1.1299   1.1335   1.1970   1.1975
 SON VEL,M/SEC     1121.4   1087.9    893.9    890.8
 MACH NUMBER        0.000    1.000    2.868    2.891

 PERFORMANCE PARAMETERS

 Ae/At                      1.0000   6.3706   6.5821
 CSTAR, M/SEC               1661.6   1661.6   1661.6
 CF                         0.6547   1.5428   1.5497
 Ivac, M/SEC                2047.8   2824.0   2832.4
 Isp, M/SEC                 1087.9   2563.6   2575.1


 MOLE FRACTIONS

 *CO              0.17458  0.16893  0.14058  0.14004
 *CO2             0.15684  0.16565  0.20108  0.20163
 *H               0.01237  0.00966  0.00031  0.00028
 HO2              0.00001  0.00001  0.00000  0.00000
 *H2              0.08077  0.07946  0.09731  0.09786
 H2O              0.53666  0.54959  0.56057  0.56006
 *O               0.00255  0.00147  0.00000  0.00000
 *OH              0.02952  0.02116  0.00015  0.00013
 *O2              0.00669  0.00406  0.00000  0.00000

  * THERMODYNAMIC PROPERTIES FITTED TO 20000.K

    PRODUCTS WHICH WERE CONSIDERED BUT WHOSE MOLE FRACTIONS
    WERE LESS THAN 5.000000E-06 FOR ALL ASSIGNED CONDITIONS

 *C              *CH             CH2             CH3             CH2OH          
 CH3O            CH4             CH3OH           CH3OOH          COOH           
 *C2             C2H             C2H2,acetylene  C2H2,vinylidene CH2CO,ketene   
 O(CH)2O         HO(CO)2OH       C2H3,vinyl      CH3CO,acetyl    C2H4           
 C2H4O,ethylen-o CH3CHO,ethanal  CH3COOH         OHCH2COOH       C2H5           
 C2H6            C2H5OH          CH3OCH3         CH3O2CH3        C2O            
 *C3             C3H3,1-propynl  C3H3,2-propynl  C3H4,allene     C3H4,propyne   
 C3H4,cyclo-     C3H5,allyl      C3H6,propylene  C3H6,cyclo-     C3H6O,propylox 
 C3H6O,acetone   C3H6O,propanal  C3H7,n-propyl   C3H7,i-propyl   C3H8           
 C3H8O,1propanol C3H8O,2propanol C3O2            *C4             C4H2,butadiyne 
 C4H4,1,3-cyclo- C4H6,butadiene  C4H6,1butyne    C4H6,2butyne    C4H6,cyclo-    
 C4H8,1-butene   C4H8,cis2-buten C4H8,tr2-butene C4H8,isobutene  C4H8,cyclo-    
 (CH3COOH)2      C4H9,n-butyl    C4H9,i-butyl    C4H9,s-butyl    C4H9,t-butyl   
 C4H10,n-butane  C4H10,isobutane *C5             C5H6,1,3cyclo-  C5H8,cyclo-    
 C5H10,1-pentene C5H10,cyclo-    C5H11,pentyl    C5H11,t-pentyl  C5H12,n-pentane
 C5H12,i-pentane CH3C(CH3)2CH3   C6H2            C6H5,phenyl     C6H5O,phenoxy  
 C6H6            C6H5OH,phenol   C6H10,cyclo-    C6H12,1-hexene  C6H12,cyclo-   
 C6H13,n-hexyl   C6H14,n-hexane  C7H7,benzyl     C7H8            C7H8O,cresol-mx
 C7H14,1-heptene C7H15,n-heptyl  C7H16,n-heptane C7H16,2-methylh C8H8,styrene   
 C8H10,ethylbenz C8H16,1-octene  C8H17,n-octyl   C8H18,n-octane  C8H18,isooctane
 C9H19,n-nonyl   C10H8,naphthale C10H21,n-decyl  C12H9,o-bipheny C12H10,biphenyl
 HCO             HCCO            HCHO,formaldehy HCOOH           H2O2           
 (HCOOH)2        O3              C(gr)           H2O(cr)         H2O(L)         

 NOTE. WEIGHT FRACTION OF FUEL IN TOTAL FUELS AND OF OXIDANT IN TOTAL OXIDANTS






 POINT ITN      T            C           H           O 
   1    2    3003.347     -16.354     -10.364     -16.343
 Pinf/Pt = 1.729023
   2    4    2844.068     -16.560     -10.549     -16.762
 Pinf/Pt = 1.731574
   2    2    2843.638     -16.560     -10.550     -16.763
   3    5    2101.828     -16.345     -11.168     -20.037
   4    3    2070.904     -16.290     -11.186     -20.236
   5    3    2042.821     -16.238     -11.203     -20.423
   6    3    2017.132     -16.187     -11.218     -20.599
   7    3    1993.484     -16.138     -11.232     -20.765
   8    3    1971.597     -16.090     -11.245     -20.923





              THEORETICAL ROCKET PERFORMANCE ASSUMING EQUILIBRIUM

           COMPOSITION DURING EXPANSION FROM INFINITE AREA COMBUSTOR

 Pin =   203.1 PSIA
 CASE = ethanol-75-gox 

             REACTANT                    WT FRACTION      ENERGY      TEMP
                                          (SEE NOTE)     KJ/KG-MOL      K  
 FUEL        C2H5OH(L)                    0.7500000   -277526.835    298.000
 FUEL        H2O(L)                       0.2500000   -285841.390    298.000
 OXIDANT     O2                           1.0000000        -4.407    298.000

 O/F=    1.20000  %FUEL= 45.454545  R,EQ.RATIO= 1.215652  PHI,EQ.RATIO= 1.302361

                 CHAMBER   THROAT     EXIT     EXIT     EXIT     EXIT     EXIT     EXIT
 Pinf/P            1.0000   1.7316   18.480   20.327   22.175   24.023   25.871   27.719
 P, BAR            14.000   8.0851  0.75760  0.68872  0.63133  0.58277  0.54114  0.50506
 T, K             3003.35  2843.64  2101.83  2070.90  2042.82  2017.13  1993.48  1971.60
 RHO, KG/CU M    1.2562 0 7.7343-1 9.9997-2 9.2279-2 8.5763-2 8.0182-2 7.5345-2 7.1107-2
 H, KJ/KG        -3856.81 -4449.60 -6583.02 -6654.69 -6719.18 -6777.73 -6831.28 -6880.55
 U, KJ/KG        -4971.30 -5494.97 -7340.64 -7401.04 -7455.32 -7504.53 -7549.49 -7590.84
 G, KJ/KG        -40307.2 -38961.7 -32092.1 -31788.4 -31512.1 -31258.8 -31025.4 -30809.0
 S, KJ/(KG)(K)    12.1366  12.1366  12.1366  12.1366  12.1366  12.1366  12.1366  12.1366

 M, (1/n)          22.406   22.617   23.067   23.070   23.073   23.076   23.078   23.079
 (dLV/dLP)t      -1.01714 -1.01202 -1.00053 -1.00044 -1.00037 -1.00032 -1.00028 -1.00024
 (dLV/dLT)p        1.3652   1.2709   1.0154   1.0130   1.0112   1.0096   1.0084   1.0074
 Cp, KJ/(KG)(K)    5.2183   4.5573   2.3652   2.3364   2.3128   2.2931   2.2765   2.2622
 GAMMAs            1.1305   1.1341   1.1857   1.1875   1.1890   1.1903   1.1914   1.1924
 SON VEL,M/SEC     1122.4   1088.8    947.8    941.4    935.5    930.1    925.0    920.3
 MACH NUMBER        0.000    1.000    2.464    2.513    2.557    2.599    2.637    2.672

 PERFORMANCE PARAMETERS

 Ae/At                      1.0000   3.6066   3.8579   4.1040   4.3454   4.5826   4.8159
 CSTAR, M/SEC               1662.4   1662.4   1662.4   1662.4   1662.4   1662.4   1662.4
 CF                         0.6550   1.4046   1.4229   1.4392   1.4539   1.4672   1.4793
 Ivac, M/SEC                2048.9   2659.5   2681.0   2700.3   2717.7   2733.5   2748.0
 Isp, M/SEC                 1088.8   2335.0   2365.5   2392.6   2417.0   2439.0   2459.2


 MOLE FRACTIONS

 *CO              0.17446  0.16883  0.14891  0.14802  0.14717  0.14638  0.14562  0.14490
 *CO2             0.15715  0.16590  0.19248  0.19343  0.19431  0.19515  0.19593  0.19668
 *H               0.01212  0.00944  0.00108  0.00094  0.00082  0.00072  0.00064  0.00057
 HO2              0.00001  0.00001  0.00000  0.00000  0.00000  0.00000  0.00000  0.00000
 *H2              0.08055  0.07929  0.08883  0.08974  0.09059  0.09141  0.09218  0.09292
 H2O              0.53754  0.55034  0.56774  0.56710  0.56646  0.56581  0.56518  0.56455
 *O               0.00247  0.00142  0.00001  0.00001  0.00000  0.00000  0.00000  0.00000
 *OH              0.02917  0.02083  0.00093  0.00076  0.00062  0.00052  0.00044  0.00037
 *O2              0.00651  0.00393  0.00002  0.00001  0.00001  0.00001  0.00001  0.00000

  * THERMODYNAMIC PROPERTIES FITTED TO 20000.K

    PRODUCTS WHICH WERE CONSIDERED BUT WHOSE MOLE FRACTIONS
    WERE LESS THAN 5.000000E-06 FOR ALL ASSIGNED CONDITIONS

 *C              *CH             CH2             CH3             CH2OH          
 CH3O            CH4             CH3OH           CH3OOH          COOH           
 *C2             C2H             C2H2,acetylene  C2H2,vinylidene CH2CO,ketene   
 O(CH)2O         HO(CO)2OH       C2H3,vinyl      CH3CO,acetyl    C2H4           
 C2H4O,ethylen-o CH3CHO,ethanal  CH3COOH         OHCH2COOH       C2H5           
 C2H6            C2H5OH          CH3OCH3         CH3O2CH3        C2O            
 *C3             C3H3,1-propynl  C3H3,2-propynl  C3H4,allene     C3H4,propyne   
 C3H4,cyclo-     C3H5,allyl      C3H6,propylene  C3H6,cyclo-     C3H6O,propylox 
 C3H6O,acetone   C3H6O,propanal  C3H7,n-propyl   C3H7,i-propyl   C3H8           
 C3H8O,1propanol C3H8O,2propanol C3O2            *C4             C4H2,butadiyne 
 C4H4,1,3-cyclo- C4H6,butadiene  C4H6,1butyne    C4H6,2butyne    C4H6,cyclo-    
 C4H8,1-butene   C4H8,cis2-buten C4H8,tr2-butene C4H8,isobutene  C4H8,cyclo-    
 (CH3COOH)2      C4H9,n-butyl    C4H9,i-butyl    C4H9,s-butyl    C4H9,t-butyl   
 C4H10,n-butane  C4H10,isobutane *C5             C5H6,1,3cyclo-  C5H8,cyclo-    
 C5H10,1-pentene C5H10,cyclo-    C5H11,pentyl    C5H11,t-pentyl  C5H12,n-pentane
 C5H12,i-pentane CH3C(CH3)2CH3   C6H2            C6H5,phenyl     C6H5O,phenoxy  
 C6H6            C6H5OH,phenol   C6H10,cyclo-    C6H12,1-hexene  C6H12,cyclo-   
 C6H13,n-hexyl   C6H14,n-hexane  C7H7,benzyl     C7H8            C7H8O,cresol-mx
 C7H14,1-heptene C7H15,n-heptyl  C7H16,n-heptane C7H16,2-methylh C8H8,styrene   
 C8H10,ethylbenz C8H16,1-octene  C8H17,n-octyl   C8H18,n-octane  C8H18,isooctane
 C9H19,n-nonyl   C10H8,naphthale C10H21,n-decyl  C12H9,o-bipheny C12H10,biphenyl
 HCO             HCCO            HCHO,formaldehy HCOOH           H2O2           
 (HCOOH)2        O3              C(gr)           H2O(cr)         H2O(L)         

 NOTE. WEIGHT FRACTION OF FUEL IN TOTAL FUELS AND OF OXIDANT IN TOTAL OXIDANTS





   3    3    1951.243     -16.044     -11.257     -21.073
   4    3    1932.234     -16.000     -11.269     -21.216
   5    3    1914.414     -15.957     -11.279     -21.354
   6    3    1897.653     -15.916     -11.289     -21.485
   7    3    1881.840     -15.876     -11.299     -21.611
   8    3    1866.879     -15.837     -11.308     -21.733





              THEORETICAL ROCKET PERFORMANCE ASSUMING EQUILIBRIUM

           COMPOSITION DURING EXPANSION FROM INFINITE AREA COMBUSTOR

 Pin =   203.1 PSIA
 CASE = ethanol-75-gox 

             REACTANT                    WT FRACTION      ENERGY      TEMP
                                          (SEE NOTE)     KJ/KG-MOL      K  
 FUEL        C2H5OH(L)                    0.7500000   -277526.835    298.000
 FUEL        H2O(L)                       0.2500000   -285841.390    298.000
 OXIDANT     O2                           1.0000000        -4.407    298.000

 O/F=    1.20000  %FUEL= 45.454545  R,EQ.RATIO= 1.215652  PHI,EQ.RATIO= 1.302361

                 CHAMBER   THROAT     EXIT     EXIT     EXIT     EXIT     EXIT     EXIT
 Pinf/P            1.0000   1.7316   29.567   31.415   33.263   35.111   36.959   38.807
 P, BAR            14.000   8.0851  0.47350  0.44564  0.42089  0.39873  0.37880  0.36076
 T, K             3003.35  2843.64  1951.24  1932.23  1914.41  1897.65  1881.84  1866.88
 RHO, KG/CU M    1.2562 0 7.7343-1 6.7362-2 6.4027-2 6.1035-2 5.8335-2 5.5886-2 5.3653-2
 H, KJ/KG        -3856.81 -4449.60 -6926.16 -6968.56 -7008.16 -7045.28 -7080.19 -7113.13
 U, KJ/KG        -4971.30 -5494.97 -7629.07 -7664.59 -7697.74 -7728.80 -7758.00 -7785.53
 G, KJ/KG        -40307.2 -38961.7 -30607.6 -30419.3 -30242.6 -30076.3 -29919.3 -29770.7
 S, KJ/(KG)(K)    12.1366  12.1366  12.1366  12.1366  12.1366  12.1366  12.1366  12.1366

 M, (1/n)          22.406   22.617   23.081   23.082   23.083   23.084   23.084   23.085
 (dLV/dLP)t      -1.01714 -1.01202 -1.00021 -1.00019 -1.00017 -1.00015 -1.00013 -1.00012
 (dLV/dLT)p        1.3652   1.2709   1.0065   1.0058   1.0052   1.0047   1.0042   1.0038
[...]
 GAMMAs            1.1219   1.1200   1.1529   1.1544
 SON VEL,M/SEC     1117.9   1084.6    921.8    919.7
 MACH NUMBER        0.000    1.000    2.829    2.849

 PERFORMANCE PARAMETERS

 Ae/At                      1.0000   6.8887   7.1251
 CSTAR, M/SEC               1668.1   1668.1   1668.1
 CF                         0.6502   1.5634   1.5709
 Ivac, M/SEC                2053.1   2890.5   2900.0
 Isp, M/SEC                 1084.6   2607.9   2620.4


 MOLE FRACTIONS

 *CO              0.12972  0.12071  0.07626  0.07592
 *CO2             0.19108  0.20380  0.26419  0.26462
 COOH             0.00001  0.00000  0.00000  0.00000
 *H               0.01043  0.00867  0.00140  0.00134
 HO2              0.00007  0.00004  0.00000  0.00000
 *H2              0.04753  0.04427  0.03337  0.03344
 H2O              0.54111  0.55653  0.61961  0.61988
 H2O2             0.00001  0.00001  0.00000  0.00000
 *O               0.00586  0.00438  0.00011  0.00010
 *OH              0.04809  0.03984  0.00420  0.00393
 *O2              0.02610  0.02175  0.00085  0.00076

  * THERMODYNAMIC PROPERTIES FITTED TO 20000.K

    PRODUCTS WHICH WERE CONSIDERED BUT WHOSE MOLE FRACTIONS
    WERE LESS THAN 5.000000E-06 FOR ALL ASSIGNED CONDITIONS

 *C              *CH             CH2             CH3             CH2OH          
 CH3O            CH4             CH3OH           CH3OOH          *C2            
 C2H             C2H2,acetylene  C2H2,vinylidene CH2CO,ketene    O(CH)2O        
 HO(CO)2OH       C2H3,vinyl      CH3CO,acetyl    C2H4            C2H4O,ethylen-o
 CH3CHO,ethanal  CH3COOH         OHCH2COOH       C2H5            C2H6           
 C2H5OH          CH3OCH3         CH3O2CH3        C2O             *C3            
 C3H3,1-propynl  C3H3,2-propynl  C3H4,allene     C3H4,propyne    C3H4,cyclo-    
 C3H5,allyl      C3H6,propylene  C3H6,cyclo-     C3H6O,propylox  C3H6O,acetone  
 C3H6O,propanal  C3H7,n-propyl   C3H7,i-propyl   C3H8            C3H8O,1propanol
 C3H8O,2propanol C3O2            *C4             C4H2,butadiyne  C4H4,1,3-cyclo-
 C4H6,butadiene  C4H6,1butyne    C4H6,2butyne    C4H6,cyclo-     C4H8,1-butene  
 C4H8,cis2-buten C4H8,tr2-butene C4H8,isobutene  C4H8,cyclo-     (CH3COOH)2     
 C4H9,n-butyl    C4H9,i-butyl    C4H9,s-butyl    C4H9,t-butyl    C4H10,n-butane 
 C4H10,isobutane *C5             C5H6,1,3cyclo-  C5H8,cyclo-     C5H10,1-pentene
 C5H10,cyclo-    C5H11,pentyl    C5H11,t-pentyl  C5H12,n-pentane C5H12,i-pentane
 CH3C(CH3)2CH3   C6H2            C6H5,phenyl     C6H5O,phenoxy   C6H6           
 C6H5OH,phenol   C6H10,cyclo-    C6H12,1-hexene  C6H12,cyclo-    C6H13,n-hexyl  
 C6H14,n-hexane  C7H7,benzyl     C7H8            C7H8O,cresol-mx C7H14,1-heptene
 C7H15,n-heptyl  C7H16,n-heptane C7H16,2-methylh C8H8,styrene    C8H10,ethylbenz
 C8H16,1-octene  C8H17,n-octyl   C8H18,n-octane  C8H18,isooctane C9H19,n-nonyl  
 C10H8,naphthale C10H21,n-decyl  C12H9,o-bipheny C12H10,biphenyl HCO            
 HCCO            HCHO,formaldehy HCOOH           (HCOOH)2        O3             
 C(gr)           H2O(cr)         H2O(L)         

 NOTE. WEIGHT FRACTION OF FUEL IN TOTAL FUELS AND OF OXIDANT IN TOTAL OXIDANTS






 POINT ITN      T            C           H           O 
   1    2    3171.214     -16.825     -10.346     -15.378
 Pinf/Pt = 1.723888
   2    3    3024.593     -17.196     -10.569     -15.648
 Pinf/Pt = 1.722590
   2    2    3024.790     -17.196     -10.568     -15.648
   3    5    2435.263     -18.555     -11.515     -17.290
   4    3    2410.985     -18.584     -11.549     -17.389
   5    3    2388.583     -18.607     -11.579     -17.484
   6    3    2367.757     -18.624     -11.605     -17.575
   7    3    2348.274     -18.638     -11.629     -17.662
   8    3    2329.952     -18.647     -11.651     -17.747





              THEORETICAL ROCKET PERFORMANCE ASSUMING EQUILIBRIUM

           COMPOSITION DURING EXPANSION FROM INFINITE AREA COMBUSTOR

 Pin =   435.1 PSIA
 CASE = ethanol-75-gox 

             REACTANT                    WT FRACTION      ENERGY      TEMP
                                          (SEE NOTE)     KJ/KG-MOL      K  
 FUEL        C2H5OH(L)                    0.7500000   -277526.835    298.000
 FUEL        H2O(L)                       0.2500000   -285841.390    298.000
 OXIDANT     O2                           1.0000000        -4.407    298.000

 O/F=    1.40000  %FUEL= 41.666667  R,EQ.RATIO= 1.086499  PHI,EQ.RATIO= 1.116310

                 CHAMBER   THROAT     EXIT     EXIT     EXIT     EXIT     EXIT     EXIT
 Pinf/P            1.0000   1.7226   18.480   20.327   22.175   24.023   25.871   27.719
 P, BAR            30.000   17.416   1.6234   1.4758   1.3528   1.2488   1.1596   1.0823
 T, K             3171.21  3024.79  2435.26  2410.98  2388.58  2367.76  2348.27  2329.95
 RHO, KG/CU M    2.6914 0 1.6569 0 1.9977-1 1.8364-1 1.7008-1 1.5851-1 1.4852-1 1.3980-1
 H, KJ/KG        -3535.42 -4124.11 -6326.31 -6403.33 -6472.90 -6536.27 -6594.39 -6648.03
 U, KJ/KG        -4650.08 -5175.20 -7138.95 -7206.98 -7268.31 -7324.08 -7375.15 -7422.19
 G, KJ/KG        -40154.2 -39052.1 -34446.9 -34243.6 -34054.4 -33877.3 -33710.5 -33552.5
 S, KJ/(KG)(K)    11.5472  11.5472  11.5472  11.5472  11.5472  11.5472  11.5472  11.5472

 M, (1/n)          23.655   23.927   24.916   24.944   24.968   24.989   25.007   25.024
 (dLV/dLP)t      -1.02796 -1.02411 -1.00669 -1.00604 -1.00547 -1.00496 -1.00451 -1.00410
 (dLV/dLT)p        1.5676   1.5145   1.1793   1.1637   1.1496   1.1370   1.1256   1.1153
 Cp, KJ/(KG)(K)    6.3157   6.0669   3.7819   3.6515   3.5328   3.4244   3.3255   3.2352
 GAMMAs            1.1221   1.1202   1.1313   1.1332   1.1352   1.1372   1.1392   1.1411
 SON VEL,M/SEC     1118.4   1085.1    958.8    954.3    950.2    946.5    943.1    939.9
 MACH NUMBER        0.000    1.000    2.464    2.510    2.551    2.588    2.623    2.655

 PERFORMANCE PARAMETERS

 Ae/At                      1.0000   3.8092   4.0878   4.3611   4.6298   4.8941   5.1544
 CSTAR, M/SEC               1668.6   1668.6   1668.6   1668.6   1668.6   1668.6   1668.6
 CF                         0.6503   1.4159   1.4353   1.4526   1.4682   1.4823   1.4952
 Ivac, M/SEC                2053.8   2706.5   2730.5   2752.0   2771.4   2789.1   2805.3
 Isp, M/SEC                 1085.1   2362.6   2395.0   2423.8   2449.8   2473.4   2495.0


 MOLE FRACTIONS

 *CO              0.12953  0.12051  0.08397  0.08285  0.08186  0.08099  0.08022  0.07953
 *CO2             0.19138  0.20410  0.25406  0.25557  0.25688  0.25803  0.25905  0.25995
 COOH             0.00001  0.00000  0.00000  0.00000  0.00000  0.00000  0.00000  0.00000
 *H               0.01034  0.00859  0.00271  0.00253  0.00237  0.00222  0.00209  0.00198
 HO2              0.00007  0.00004  0.00000  0.00000  0.00000  0.00000  0.00000  0.00000
 *H2              0.04739  0.04413  0.03360  0.03343  0.03330  0.03321  0.03315  0.03312
 H2O              0.54158  0.55697  0.61095  0.61239  0.61362  0.61468  0.61559  0.61639
 H2O2             0.00001  0.00001  0.00000  0.00000  0.00000  0.00000  0.00000  0.00000
 *O               0.00580  0.00434  0.00050  0.00043  0.00037  0.00033  0.00028  0.00025
 *OH              0.04794  0.03970  0.01043  0.00953  0.00874  0.00804  0.00741  0.00685
 *O2              0.02595  0.02161  0.00377  0.00328  0.00286  0.00250  0.00219  0.00193

  * THERMODYNAMIC PROPERTIES FITTED TO 20000.K

    PRODUCTS WHICH WERE CONSIDERED BUT WHOSE MOLE FRACTIONS
    WERE LESS THAN 5.000000E-06 FOR ALL ASSIGNED CONDITIONS

 *C              *CH             CH2             CH3             CH2OH          
 CH3O            CH4             CH3OH           CH3OOH          *C2            
 C2H             C2H2,acetylene  C2H2,vinylidene CH2CO,ketene    O(CH)2O        
 HO(CO)2OH       C2H3,vinyl      CH3CO,acetyl    C2H4            C2H4O,ethylen-o
 CH3CHO,ethanal  CH3COOH         OHCH2COOH       C2H5            C2H6           
 C2H5OH          CH3OCH3         CH3O2CH3        C2O             *C3            
 C3H3,1-propynl  C3H3,2-propynl  C3H4,allene     C3H4,propyne    C3H4,cyclo-    
 C3H5,allyl      C3H6,propylene  C3H6,cyclo-     C3H6O,propylox  C3H6O,acetone  
 C3H6O,propanal  C3H7,n-propyl   C3H7,i-propyl   C3H8            C3H8O,1propanol
 C3H8O,2propanol C3O2            *C4             C4H2,butadiyne  C4H4,1,3-cyclo-
 C4H6,butadiene  C4H6,1butyne    C4H6,2butyne    C4H6,cyclo-     C4H8,1-butene  
 C4H8,cis2-buten C4H8,tr2-butene C4H8,isobutene  C4H8,cyclo-     (CH3COOH)2     
 C4H9,n-butyl    C4H9,i-butyl    C4H9,s-butyl    C4H9,t-butyl    C4H10,n-butane 
 C4H10,isobutane *C5             C5H6,1,3cyclo-  C5H8,cyclo-     C5H10,1-pentene
 C5H10,cyclo-    C5H11,pentyl    C5H11,t-pentyl  C5H12,n-pentane C5H12,i-pentane
 CH3C(CH3)2CH3   C6H2            C6H5,phenyl     C6H5O,phenoxy   C6H6           
 C6H5OH,phenol   C6H10,cyclo-    C6H12,1-hexene  C6H12,cyclo-    C6H13,n-hexyl  
 C6H14,n-hexane  C7H7,benzyl     C7H8            C7H8O,cresol-mx C7H14,1-heptene
 C7H15,n-heptyl  C7H16,n-heptane C7H16,2-methylh C8H8,styrene    C8H10,ethylbenz
 C8H16,1-octene  C8H17,n-octyl   C8H18,n-octane  C8H18,isooctane C9H19,n-nonyl  
 C10H8,naphthale C10H21,n-decyl  C12H9,o-bipheny C12H10,biphenyl HCO            
 HCCO            HCHO,formaldehy HCOOH           (HCOOH)2        O3             
 C(gr)           H2O(cr)         H2O(L)         

 NOTE. WEIGHT FRACTION OF FUEL IN TOTAL FUELS AND OF OXIDANT IN TOTAL OXIDANTS





   3    3    2312.646     -18.654     -11.671     -17.829
   4    3    2296.239     -18.658     -11.690     -17.908
   5    3    2280.633     -18.660     -11.707     -17.986
   6    3    2265.750     -18.659     -11.722     -18.061
   7    3    2251.521     -18.658     -11.737     -18.135
   8    3    2237.889     -18.654     -11.751     -18.207





              THEORETICAL ROCKET PERFORMANCE ASSUMING EQUILIBRIUM

           COMPOSITION DURING EXPANSION FROM INFINITE AREA COMBUSTOR

 Pin =   435.1 PSIA
 CASE = ethanol-75-gox 

             REACTANT                    WT FRACTION      ENERGY      TEMP
                                          (SEE NOTE)     KJ/KG-MOL      K  
 FUEL        C2H5OH(L)                    0.7500000   -277526.835    298.000
 FUEL        H2O(L)                       0.2500000   -285841.390    298.000
 OXIDANT     O2                           1.0000000        -4.407    298.000

 O/F=    1.40000  %FUEL= 41.666667  R,EQ.RATIO= 1.086499  PHI,EQ.RATIO= 1.116310

                 CHAMBER   THROAT     EXIT     EXIT     EXIT     EXIT     EXIT     EXIT
 Pinf/P            1.0000   1.7226   29.567   31.415   33.263   35.111   36.959   38.807
 P, BAR            30.000   17.416   1.0146  0.95495  0.90190  0.85443  0.81171  0.77306
 T, K             3171.21  3024.79  2312.65  2296.24  2280.63  2265.75  2251.52  2237.89
 RHO, KG/CU M    2.6914 0 1.6569 0 1.3212-1 1.2530-1 1.1920-1 1.1371-1 1.0875-1 1.0424-1
 H, KJ/KG        -3535.42 -4124.11 -6697.79 -6744.17 -6787.58 -6828.34 -6866.76 -6903.06
 U, KJ/KG        -4650.08 -5175.20 -7465.77 -7506.32 -7544.20 -7579.72 -7613.15 -7644.69
 G, KJ/KG        -40154.2 -39052.1 -33402.5 -33259.4 -33122.6 -32991.5 -32865.6 -32744.5
 S, KJ/(KG)(K)    11.5472  11.5472  11.5472  11.5472  11.5472  11.5472  11.5472  11.5472

 M, (1/n)          23.655   23.927   25.038   25.051   25.062   25.072   25.081   25.089
 (dLV/dLP)t      -1.02796 -1.02411 -1.00375 -1.00342 -1.00314 -1.00288 -1.00264 -1.00243
 (dLV/dLT)p        1.5676   1.5145   1.1060   1.0976   1.0900   1.0831   1.0769   1.0712
 Cp, KJ/(KG)(K)    6.3157   6.0669   3.1526   3.0771   3.0080   2.9447   2.8868   2.8337
 GAMMAs            1.1221   1.1202   1.1430   1.1449   1.1467   1.1484   1.1501   1.1518
 SON VEL,M/SEC     1118.4   1085.1    936.9    934.1    931.4    928.9    926.5    924.2
 MACH NUMBER        0.000    1.000    2.684    2.712    2.738    2.763    2.786    2.808

 PERFORMANCE PARAMETERS

 Ae/At                      1.0000   5.4110   5.6641   5.9140   6.1608   6.4047   6.6459
 CSTAR, M/SEC               1668.6   1668.6   1668.6   1668.6   1668.6   1668.6   1668.6
 CF                         0.6503   1.5072   1.5182   1.5284   1.5380   1.5469   1.5553
 Ivac, M/SEC                2053.8   2820.3   2834.1   2847.0   2859.1   2870.4   2881.0
 Isp, M/SEC                 1085.1   2514.9   2533.3   2550.4   2566.3   2581.2   2595.2


 MOLE FRACTIONS

 *CO              0.12953  0.12051  0.07892  0.07836  0.07785  0.07739  0.07696  0.07657
 *CO2             0.19138  0.20410  0.26077  0.26150  0.26216  0.26276  0.26331  0.26381
 COOH             0.00001  0.00000  0.00000  0.00000  0.00000  0.00000  0.00000  0.00000
 *H               0.01034  0.00859  0.00187  0.00177  0.00168  0.00160  0.00152  0.00145
 HO2              0.00007  0.00004  0.00000  0.00000  0.00000  0.00000  0.00000  0.00000
 *H2              0.04739  0.04413  0.03311  0.03312  0.03314  0.03318  0.03322  0.03328
 H2O              0.54158  0.55697  0.61708  0.61768  0.61821  0.61867  0.61907  0.61942
 H2O2             0.00001  0.00001  0.00000  0.00000  0.00000  0.00000  0.00000  0.00000
 *O               0.00580  0.00434  0.00022  0.00019  0.00017  0.00015  0.00013  0.00012
 *OH              0.04794  0.03970  0.00634  0.00588  0.00547  0.00509  0.00474  0.00442
 *O2              0.02595  0.02161  0.00170  0.00150  0.00132  0.00117  0.00104  0.00093

  * THERMODYNAMIC PROPERTIES FITTED TO 20000.K

    PRODUCTS WHICH WERE CONSIDERED BUT WHOSE MOLE FRACTIONS
    WERE LESS THAN 5.000000E-06 FOR ALL ASSIGNED CONDITIONS

 *C              *CH             CH2             CH3             CH2OH          
 CH3O            CH4             CH3OH           CH3OOH          *C2            
 C2H             C2H2,acetylene  C2H2,vinylidene CH2CO,ketene    O(CH)2O        
 HO(CO)2OH       C2H3,vinyl      CH3CO,acetyl    C2H4            C2H4O,ethylen-o
 CH3CHO,ethanal  CH3COOH         OHCH2COOH       C2H5            C2H6           
 C2H5OH          CH3OCH3         CH3O2CH3        C2O             *C3            
 C3H3,1-propynl  C3H3,2-propynl  C3H4,allene     C3H4,propyne    C3H4,cyclo-    
 C3H5,allyl      C3H6,propylene  C3H6,cyclo-     C3H6O,propylox  C3H6O,acetone  
 C3H6O,propanal  C3H7,n-propyl   C3H7,i-propyl   C3H8            C3H8O,1propanol
 C3H8O,2propanol C3O2            *C4             C4H2,butadiyne  C4H4,1,3-cyclo-
 C4H6,butadiene  C4H6,1butyne    C4H6,2butyne    C4H6,cyclo-     C4H8,1-butene  
 C4H8,cis2-buten C4H8,tr2-butene C4H8,isobutene  C4H8,cyclo-     (CH3COOH)2     
 C4H9,n-butyl    C4H9,i-butyl    C4H9,s-butyl    C4H9,t-butyl    C4H10,n-butane 
 C4H10,isobutane *C5             C5H6,1,3cyclo-  C5H8,cyclo-     C5H10,1-pentene
 C5H10,cyclo-    C5H11,pentyl    C5H11,t-pentyl  C5H12,n-pentane C5H12,i-pentane
 CH3C(CH3)2CH3   C6H2            C6H5,phenyl     C6H5O,phenoxy   C6H6           
 C6H5OH,phenol   C6H10,cyclo-    C6H12,1-hexene  C6H12,cyclo-    C6H13,n-hexyl  
 C6H14,n-hexane  C7H7,benzyl     C7H8            C7H8O,cresol-mx C7H14,1-heptene
 C7H15,n-heptyl  C7H16,n-heptane C7H16,2-methylh C8H8,styrene    C8H10,ethylbenz
 C8H16,1-octene  C8H17,n-octyl   C8H18,n-octane  C8H18,isooctane C9H19,n-nonyl  
 C10H8,naphthale C10H21,n-decyl  C12H9,o-bipheny C12H10,biphenyl HCO            
 HCCO            HCHO,formaldehy HCOOH           (HCOOH)2        O3             
 C(gr)           H2O(cr)         H2O(L)         

 NOTE. WEIGHT FRACTION OF FUEL IN TOTAL FUELS AND OF OXIDANT IN TOTAL OXIDANTS





   3    3    2224.804     -18.649     -11.763     -18.277
   4    3    2212.225     -18.644     -11.775     -18.346





              THEORETICAL ROCKET PERFORMANCE ASSUMING EQUILIBRIUM

           COMPOSITION DURING EXPANSION FROM INFINITE AREA COMBUSTOR

 Pin =   435.1 PSIA
 CASE = ethanol-75-gox 

             REACTANT                    WT FRACTION      ENERGY      TEMP
                                          (SEE NOTE)     KJ/KG-MOL      K  
 FUEL        C2H5OH(L)                    0.7500000   -277526.835    298.000
 FUEL        H2O(L)                       0.2500000   -285841.390    298.000
 OXIDANT     O2                           1.0000000        -4.407    298.000

 O/F=    1.40000  %FUEL= 41.666667  R,EQ.RATIO= 1.086499  PHI,EQ.RATIO= 1.116310

                 CHAMBER   THROAT     EXIT     EXIT
 Pinf/P            1.0000   1.7226   40.655   42.503
 P, BAR            30.000   17.416  0.73792  0.70583
 T, K             3171.21  3024.79  2224.80  2212.23
 RHO, KG/CU M    2.6914 0 1.6569 0 1.0011-1 9.6331-2
 H, KJ/KG        -3535.42 -4124.11 -6937.45 -6970.12
 U, KJ/KG        -4650.08 -5175.20 -7674.53 -7702.84
 G, KJ/KG        -40154.2 -39052.1 -32627.8 -32515.2
 S, KJ/(KG)(K)    11.5472  11.5472  11.5472  11.5472

 M, (1/n)          23.655   23.927   25.097   25.103
 (dLV/dLP)t      -1.02796 -1.02411 -1.00225 -1.00207
 (dLV/dLT)p        1.5676   1.5145   1.0661   1.0614
 Cp, KJ/(KG)(K)    6.3157   6.0669   2.7849   2.7402
 GAMMAs            1.1221   1.1202   1.1533   1.1549
 SON VEL,M/SEC     1118.4   1085.1    922.0    919.9
 MACH NUMBER        0.000    1.000    2.829    2.849

 PERFORMANCE PARAMETERS

 Ae/At                      1.0000   6.8846   7.1208
 CSTAR, M/SEC               1668.6   1668.6   1668.6
 CF                         0.6503   1.5632   1.5707
 Ivac, M/SEC                2053.8   2891.0   2900.5
 Isp, M/SEC                 1085.1   2608.5   2621.0


 MOLE FRACTIONS

 *CO              0.12953  0.12051  0.07621  0.07588
 *CO2             0.19138  0.20410  0.26427  0.26469
 COOH             0.00001  0.00000  0.00000  0.00000
 *H               0.01034  0.00859  0.00138  0.00131
 HO2              0.00007  0.00004  0.00000  0.00000
 *H2              0.04739  0.04413  0.03335  0.03342
 H2O              0.54158  0.55697  0.61973  0.62000
 H2O2             0.00001  0.00001  0.00000  0.00000
 *O               0.00580  0.00434  0.00011  0.00009
 *OH              0.04794  0.03970  0.00413  0.00387
 *O2              0.02595  0.02161  0.00083  0.00074

  * THERMODYNAMIC PROPERTIES FITTED TO 20000.K

    PRODUCTS WHICH WERE CONSIDERED BUT WHOSE MOLE FRACTIONS
    WERE LESS THAN 5.000000E-06 FOR ALL ASSIGNED CONDITIONS

 *C              *CH             CH2             CH3             CH2OH          
 CH3O            CH4             CH3OH           CH3OOH          *C2            
 C2H             C2H2,acetylene  C2H2,vinylidene CH2CO,ketene    O(CH)2O        
 HO(CO)2OH       C2H3,vinyl      CH3CO,acetyl    C2H4            C2H4O,ethylen-o
 CH3CHO,ethanal  CH3COOH         OHCH2COOH       C2H5            C2H6           
 C2H5OH          CH3OCH3         CH3O2CH3        C2O             *C3            
 C3H3,1-propynl  C3H3,2-propynl  C3H4,allene     C3H4,propyne    C3H4,cyclo-    
 C3H5,allyl      C3H6,propylene  C3H6,cyclo-     C3H6O,propylox  C3H6O,acetone  
 C3H6O,propanal  C3H7,n-propyl   C3H7,i-propyl   C3H8            C3H8O,1propanol
 C3H8O,2propanol C3O2            *C4             C4H2,butadiyne  C4H4,1,3-cyclo-
 C4H6,butadiene  C4H6,1butyne    C4H6,2butyne    C4H6,cyclo-     C4H8,1-butene  
 C4H8,cis2-buten C4H8,tr2-butene C4H8,isobutene  C4H8,cyclo-     (CH3COOH)2     
 C4H9,n-butyl    C4H9,i-butyl    C4H9,s-butyl    C4H9,t-butyl    C4H10,n-butane 
 C4H10,isobutane *C5             C5H6,1,3cyclo-  C5H8,cyclo-     C5H10,1-pentene
 C5H10,cyclo-    C5H11,pentyl    C5H11,t-pentyl  C5H12,n-pentane C5H12,i-pentane
 CH3C(CH3)2CH3   C6H2            C6H5,phenyl     C6H5O,phenoxy   C6H6           
 C6H5OH,phenol   C6H10,cyclo-    C6H12,1-hexene  C6H12,cyclo-    C6H13,n-hexyl  
 C6H14,n-hexane  C7H7,benzyl     C7H8            C7H8O,cresol-mx C7H14,1-heptene
 C7H15,n-heptyl  C7H16,n-heptane C7H16,2-methylh C8H8,styrene    C8H10,ethylbenz
 C8H16,1-octene  C8H17,n-octyl   C8H18,n-octane  C8H18,isooctane C9H19,n-nonyl  
 C10H8,naphthale C10H21,n-decyl  C12H9,o-bipheny C12H10,biphenyl HCO            
 HCCO            HCHO,formaldehy HCOOH           (HCOOH)2        O3             
 C(gr)           H2O(cr)         H2O(L)         

 NOTE. WEIGHT FRACTION OF FUEL IN TOTAL FUELS AND OF OXIDANT IN TOTAL OXIDANTS



