
 *******************************************************************************

         NASA-GLENN CHEMICAL EQUILIBRIUM PROGRAM CEA2, MAY 21, 2004
                   BY  BONNIE MCBRIDE AND SANFORD GORDON
      REFS: NASA RP-1311, PART I, 1994 AND NASA RP-1311, PART II, 1996

 *******************************************************************************



 problem  case=ethanol-75-gox o/f=1.20,1.24,1.28,1.32,1.36,1.40,
       rocket  equilibrium
   p,bar=15.0,16.0,17.0,18.0,19.0,20.0,21.0,22.0,23.0,24.0,25.0,
   pi/p=27.71929,29.56725,31.41520,33.26315,35.11110,36.95906,38.80701,40.65496,4
 2.50292,44.35087,46.19882,
 react
   fuel=C2H5OH(L) wt=75  t,k=298
   fuel=H2O(L) wt=25  t,k=298
   oxid=O2 t,k=298
 end

 OPTIONS: TP=F  HP=F  SP=F  TV=F  UV=F  SV=F  DETN=F  SHOCK=F  REFL=F  INCD=F
 RKT=T  FROZ=F  EQL=T  IONS=F  SIUNIT=T  DEBUGF=F  SHKDBG=F  DETDBG=F  TRNSPT=F

 TRACE= 0.00E+00  S/R= 0.000000E+00  H/R= 0.000000E+00  U/R= 0.000000E+00

 Pc,BAR =    15.000000    16.000000    17.000000    18.000000    19.000000    20.000000    21.000000

 Pc,BAR =    22.000000    23.000000    24.000000    25.000000

 Pc/P =    27.7193    29.5673    31.4152    33.2632    35.1111    36.9591    38.8070    40.6550    42.5029

 Pc/P =    44.3509    46.1988

 SUBSONIC AREA RATIOS =

 SUPERSONIC AREA RATIOS =

 NFZ=  1  Mdot/Ac= 0.000000E+00  Ac/At= 0.000000E+00

 WARNING!!  AMOUNT MISSING FOR REACTANT  3.
 PROGRAM SETS WEIGHT PERCENT = 100. (REACT)

    REACTANT          WT.FRAC   (ENERGY/R),K   TEMP,K  DENSITY
        EXPLODED FORMULA
 F: C2H5OH(L)        0.750000  -0.333786E+05   298.00  0.0000
          C  2.00000  H  6.00000  O  1.00000
 F: H2O(L)           0.250000  -0.343786E+05   298.00  0.0000
          H  2.00000  O  1.00000
 O: O2               1.000000  -0.530002E+00   298.00  0.0000
          O  2.00000

  SPECIES BEING CONSIDERED IN THIS SYSTEM
 (CONDENSED PHASE MAY HAVE NAME LISTED SEVERAL TIMES)
  LAST thermo.inp UPDATE:    9/09/04

  g 7/97  *C               tpis79  *CH              g 4/02  CH2            
  g 4/02  CH3              g11/00  CH2OH            g 7/00  CH3O           
  g 8/99  CH4              g 7/00  CH3OH            srd 01  CH3OOH         
  tpis79  *CO              g 9/99  *CO2             tpis91  COOH           
  tpis91  *C2              g 6/01  C2H              g 1/91  C2H2,acetylene 
  g 5/01  C2H2,vinylidene  g 4/02  CH2CO,ketene     g 3/02  O(CH)2O        
  srd 01  HO(CO)2OH        g 7/01  C2H3,vinyl       g 6/96  CH3CO,acetyl   
  g 1/00  C2H4             g 8/88  C2H4O,ethylen-o  g 8/88  CH3CHO,ethanal 
  g 6/00  CH3COOH          srd 01  OHCH2COOH        g 7/00  C2H5           
  g 7/00  C2H6             g 8/88  C2H5OH           g 7/00  CH3OCH3        
  srd 01  CH3O2CH3         g 8/00  C2O              tpis79  *C3            
  n 4/98  C3H3,1-propynl   n 4/98  C3H3,2-propynl   g 2/00  C3H4,allene    
  g 1/00  C3H4,propyne     g 5/90  C3H4,cyclo-      g 3/01  C3H5,allyl     
  g 2/00  C3H6,propylene   g 1/00  C3H6,cyclo-      g 6/01  C3H6O,propylox 
  g 6/97  C3H6O,acetone    g 1/02  C3H6O,propanal   g 7/01  C3H7,n-propyl  
  g 9/85  C3H7,i-propyl    g 2/00  C3H8             g 2/00  C3H8O,1propanol
  g 2/00  C3H8O,2propanol  g 7/88  C3O2             g tpis  *C4            
  g 7/01  C4H2,butadiyne   g 8/00  C4H4,1,3-cyclo-  n10/92  C4H6,butadiene 
  n10/93  C4H6,1butyne     n10/93  C4H6,2butyne     g 8/00  C4H6,cyclo-    
  n 4/88  C4H8,1-butene    n 4/88  C4H8,cis2-buten  n 4/88  C4H8,tr2-butene
  n 4/88  C4H8,isobutene   g 8/00  C4H8,cyclo-      g10/00  (CH3COOH)2     
  n10/84  C4H9,n-butyl     n10/84  C4H9,i-butyl     g 1/93  C4H9,s-butyl   
  g 1/93  C4H9,t-butyl     g12/00  C4H10,n-butane   g 8/00  C4H10,isobutane
  g 8/00  *C5              g 5/90  C5H6,1,3cyclo-   g 1/93  C5H8,cyclo-    
  n 4/87  C5H10,1-pentene  g 2/01  C5H10,cyclo-     n10/84  C5H11,pentyl   
  g 1/93  C5H11,t-pentyl   n10/85  C5H12,n-pentane  n10/85  C5H12,i-pentane
  n10/85  CH3C(CH3)2CH3    g 2/93  C6H2             g11/00  C6H5,phenyl    
  g 8/00  C6H5O,phenoxy    g 8/00  C6H6             g 8/00  C6H5OH,phenol  
  g 1/93  C6H10,cyclo-     n 4/87  C6H12,1-hexene   g 6/90  C6H12,cyclo-   
  n10/83  C6H13,n-hexyl    g 6/01  C6H14,n-hexane   g 7/01  C7H7,benzyl    
  g 1/93  C7H8             g12/00  C7H8O,cresol-mx  n 4/87  C7H14,1-heptene
  n10/83  C7H15,n-heptyl   n10/85  C7H16,n-heptane  n10/85  C7H16,2-methylh
  n 4/89  C8H8,styrene     n10/86  C8H10,ethylbenz  n 4/87  C8H16,1-octene 
  n10/83  C8H17,n-octyl    n 4/85  C8H18,n-octane   n 4/85  C8H18,isooctane
  n10/83  C9H19,n-nonyl    g 3/01  C10H8,naphthale  n10/83  C10H21,n-decyl 
  g 8/00  C12H9,o-bipheny  g 8/00  C12H10,biphenyl  g 6/97  *H             
  g 1/01  HCO              g 6/01  HCCO             g 4/02  HO2            
  tpis78  *H2              g 5/01  HCHO,formaldehy  g 6/01  HCOOH          
  g 8/89  H2O              g 6/99  H2O2             g 6/01  (HCOOH)2       
  g 5/97  *O               g 4/02  *OH              tpis89  *O2            
  g 8/01  O3               n 4/83  C(gr)            n 4/83  C(gr)          
  n 4/83  C(gr)            g11/99  H2O(cr)          g 8/01  H2O(L)         
  g 8/01  H2O(L)         

 O/F =   1.200000

                       EFFECTIVE FUEL     EFFECTIVE OXIDANT        MIXTURE
 ENTHALPY                  h(2)/R              h(1)/R               h0/R
 (KG-MOL)(K)/KG       -0.10204839E+04     -0.16563198E-01     -0.46386537E+03

 KG-FORM.WT./KG             bi(2)               bi(1)               b0i
  *C                   0.32560252E-01      0.00000000E+00      0.14800114E-01
  *H                   0.12543497E+00      0.00000000E+00      0.57015897E-01
  *O                   0.30157235E-01      0.62502344E-01      0.47800021E-01

 POINT ITN      T            C           H           O 
   1   23    3008.712     -16.303     -10.334     -16.324
 Pinf/Pt = 1.729340
   2    4    2848.134     -16.506     -10.519     -16.746
 Pinf/Pt = 1.731968
   2    2    2847.688     -16.506     -10.519     -16.748
   3    5    1971.109     -16.019     -11.210     -20.926
   4    3    1950.738     -15.973     -11.222     -21.077
   5    3    1931.715     -15.928     -11.234     -21.220
   6    3    1913.885     -15.885     -11.244     -21.358
   7    3    1897.115     -15.844     -11.254     -21.489
   8    3    1881.294     -15.804     -11.264     -21.616





              THEORETICAL ROCKET PERFORMANCE ASSUMING EQUILIBRIUM

           COMPOSITION DURING EXPANSION FROM INFINITE AREA COMBUSTOR

 Pin =   217.6 PSIA
 CASE = ethanol-75-gox 

             REACTANT                    WT FRACTION      ENERGY      TEMP
                                          (SEE NOTE)     KJ/KG-MOL      K  
 FUEL        C2H5OH(L)                    0.7500000   -277526.835    298.000
 FUEL        H2O(L)                       0.2500000   -285841.390    298.000
 OXIDANT     O2                           1.0000000        -4.407    298.000

 O/F=    1.20000  %FUEL= 45.454545  R,EQ.RATIO= 1.215652  PHI,EQ.RATIO= 1.302361

                 CHAMBER   THROAT     EXIT     EXIT     EXIT     EXIT     EXIT     EXIT
 Pinf/P            1.0000   1.7320   27.719   29.567   31.415   33.263   35.111   36.959
 P, BAR            15.000   8.6607  0.54114  0.50732  0.47748  0.45095  0.42722  0.40585
 T, K             3008.71  2847.69  1971.11  1950.74  1931.72  1913.88  1897.11  1881.29
 RHO, KG/CU M    1.3442 0 8.2766-1 7.6207-2 7.2194-2 6.8619-2 6.5414-2 6.2521-2 5.9896-2
 H, KJ/KG        -3856.81 -4450.52 -6882.01 -6927.60 -6970.00 -7009.58 -7046.69 -7081.60
 U, KJ/KG        -4972.70 -5496.91 -7592.11 -7630.32 -7665.83 -7698.97 -7730.01 -7759.20
 G, KJ/KG        -40295.3 -38938.9 -30754.1 -30553.0 -30365.0 -30188.6 -30022.7 -29866.0
 S, KJ/(KG)(K)    12.1110  12.1110  12.1110  12.1110  12.1110  12.1110  12.1110  12.1110

 M, (1/n)          22.418   22.627   23.080   23.081   23.082   23.083   23.084   23.084
 (dLV/dLP)t      -1.01685 -1.01176 -1.00023 -1.00020 -1.00018 -1.00016 -1.00014 -1.00013
 (dLV/dLT)p        1.3585   1.2648   1.0071   1.0063   1.0056   1.0050   1.0045   1.0041
 Cp, KJ/(KG)(K)    5.1600   4.5039   2.2590   2.2471   2.2366   2.2274   2.2193   2.2120
 GAMMAs            1.1310   1.1348   1.1926   1.1935   1.1943   1.1950   1.1956   1.1962
 SON VEL,M/SEC     1123.4   1089.7    920.3    915.8    911.6    907.6    903.9    900.3
 MACH NUMBER        0.000    1.000    2.673    2.706    2.737    2.767    2.794    2.821

 PERFORMANCE PARAMETERS

 Ae/At                      1.0000   4.8114   5.0410   5.2673   5.4907   5.7112   5.9291
 CSTAR, M/SEC               1663.2   1663.2   1663.2   1663.2   1663.2   1663.2   1663.2
 CF                         0.6552   1.4790   1.4901   1.5003   1.5098   1.5187   1.5270
 Ivac, M/SEC                2050.0   2748.4   2761.8   2774.1   2785.6   2796.4   2806.4
 Isp, M/SEC                 1089.7   2459.8   2478.2   2495.3   2511.1   2525.8   2539.6


 MOLE FRACTIONS

 *CO              0.17434  0.16874  0.14488  0.14419  0.14353  0.14289  0.14227  0.14167
 *CO2             0.15744  0.16614  0.19670  0.19741  0.19809  0.19874  0.19937  0.19998
 *H               0.01189  0.00924  0.00055  0.00050  0.00045  0.00040  0.00037  0.00034
 HO2              0.00001  0.00001  0.00000  0.00000  0.00000  0.00000  0.00000  0.00000
 *H2              0.08035  0.07913  0.09294  0.09364  0.09432  0.09497  0.09560  0.09621
 H2O              0.53836  0.55104  0.56456  0.56395  0.56335  0.56276  0.56219  0.56163
 *O               0.00240  0.00137  0.00000  0.00000  0.00000  0.00000  0.00000  0.00000
 *OH              0.02884  0.02052  0.00036  0.00031  0.00027  0.00023  0.00020  0.00018
 *O2              0.00635  0.00381  0.00000  0.00000  0.00000  0.00000  0.00000  0.00000

  * THERMODYNAMIC PROPERTIES FITTED TO 20000.K

    PRODUCTS WHICH WERE CONSIDERED BUT WHOSE MOLE FRACTIONS
    WERE LESS THAN 5.000000E-06 FOR ALL ASSIGNED CONDITIONS

 *C              *CH             CH2             CH3             CH2OH          
 CH3O            CH4             CH3OH           CH3OOH          COOH           
 *C2             C2H             C2H2,acetylene  C2H2,vinylidene CH2CO,ketene   
 O(CH)2O         HO(CO)2OH       C2H3,vinyl      CH3CO,acetyl    C2H4           
 C2H4O,ethylen-o CH3CHO,ethanal  CH3COOH         OHCH2COOH       C2H5           
 C2H6            C2H5OH          CH3OCH3         CH3O2CH3        C2O            
 *C3             C3H3,1-propynl  C3H3,2-propynl  C3H4,allene     C3H4,propyne   
 C3H4,cyclo-     C3H5,allyl      C3H6,propylene  C3H6,cyclo-     C3H6O,propylox 
 C3H6O,acetone   C3H6O,propanal  C3H7,n-propyl   C3H7,i-propyl   C3H8           
 C3H8O,1propanol C3H8O,2propanol C3O2            *C4             C4H2,butadiyne 
 C4H4,1,3-cyclo- C4H6,butadiene  C4H6,1butyne    C4H6,2butyne    C4H6,cyclo-    
 C4H8,1-butene   C4H8,cis2-buten C4H8,tr2-butene C4H8,isobutene  C4H8,cyclo-    
 (CH3COOH)2      C4H9,n-butyl    C4H9,i-butyl    C4H9,s-butyl    C4H9,t-butyl   
 C4H10,n-butane  C4H10,isobutane *C5             C5H6,1,3cyclo-  C5H8,cyclo-    
 C5H10,1-pentene C5H10,cyclo-    C5H11,pentyl    C5H11,t-pentyl  C5H12,n-pentane
 C5H12,i-pentane CH3C(CH3)2CH3   C6H2            C6H5,phenyl     C6H5O,phenoxy  
 C6H6            C6H5OH,phenol   C6H10,cyclo-    C6H12,1-hexene  C6H12,cyclo-   
 C6H13,n-hexyl   C6H14,n-hexane  C7H7,benzyl     C7H8            C7H8O,cresol-mx
 C7H14,1-heptene C7H15,n-heptyl  C7H16,n-heptane C7H16,2-methylh C8H8,styrene   
 C8H10,ethylbenz C8H16,1-octene  C8H17,n-octyl   C8H18,n-octane  C8H18,isooctane
 C9H19,n-nonyl   C10H8,naphthale C10H21,n-decyl  C12H9,o-bipheny C12H10,biphenyl
 HCO             HCCO            HCHO,formaldehy HCOOH           H2O2           
 (HCOOH)2        O3              C(gr)           H2O(cr)         H2O(L)         

 NOTE. WEIGHT FRACTION OF FUEL IN TOTAL FUELS AND OF OXIDANT IN TOTAL OXIDANTS





   3    3    1866.327     -15.765     -11.272     -21.738
   4    3    1852.134     -15.727     -11.281     -21.855
   5    3    1838.641     -15.690     -11.289     -21.969
   6    2    1825.789     -15.654     -11.297     -22.078
   7    2    1813.523     -15.619     -11.304     -22.185





              THEORETICAL ROCKET PERFORMANCE ASSUMING EQUILIBRIUM

           COMPOSITION DURING EXPANSION FROM INFINITE AREA COMBUSTOR

 Pin =   217.6 PSIA
 CASE = ethanol-75-gox 

             REACTANT                    WT FRACTION      ENERGY      TEMP
                                          (SEE NOTE)     KJ/KG-MOL      K  
 FUEL        C2H5OH(L)                    0.7500000   -277526.835    298.000
 FUEL        H2O(L)                       0.2500000   -285841.390    298.000
 OXIDANT     O2                           1.0000000        -4.407    298.000

 O/F=    1.20000  %FUEL= 45.454545  R,EQ.RATIO= 1.215652  PHI,EQ.RATIO= 1.302361

                 CHAMBER   THROAT     EXIT     EXIT     EXIT     EXIT     EXIT
 Pinf/P            1.0000   1.7320   38.807   40.655   42.503   44.351   46.199
 P, BAR            15.000   8.6607  0.38653  0.36896  0.35292  0.33821  0.32468
 T, K             3008.71  2847.69  1866.33  1852.13  1838.64  1825.79  1813.52
 RHO, KG/CU M    1.3442 0 8.2766-1 5.7503-2 5.5311-2 5.3295-2 5.1435-2 4.9712-2
 H, KJ/KG        -3856.81 -4450.52 -7114.52 -7145.68 -7175.22 -7203.30 -7230.06
 U, KJ/KG        -4972.70 -5496.91 -7786.72 -7812.74 -7837.41 -7860.86 -7883.18
 G, KJ/KG        -40295.3 -38938.9 -29717.6 -29576.9 -29443.0 -29315.4 -29193.6
 S, KJ/(KG)(K)    12.1110  12.1110  12.1110  12.1110  12.1110  12.1110  12.1110

 M, (1/n)          22.418   22.627   23.085   23.086   23.086   23.086   23.087
 (dLV/dLP)t      -1.01685 -1.01176 -1.00012 -1.00011 -1.00010 -1.00009 -1.00008
 (dLV/dLT)p        1.3585   1.2648   1.0037   1.0034   1.0031   1.0028   1.0026
 Cp, KJ/(KG)(K)    5.1600   4.5039   2.2054   2.1995   2.1941   2.1892   2.1846
 GAMMAs            1.1310   1.1348   1.1967   1.1972   1.1977   1.1981   1.1985
 SON VEL,M/SEC     1123.4   1089.7    896.9    893.7    890.6    887.6    884.7
 MACH NUMBER        0.000    1.000    2.846    2.870    2.893    2.915    2.936

 PERFORMANCE PARAMETERS

 Ae/At                      1.0000   6.1446   6.3578   6.5688   6.7778   6.9848
 CSTAR, M/SEC               1663.2   1663.2   1663.2   1663.2   1663.2   1663.2
 CF                         0.6552   1.5347   1.5421   1.5490   1.5555   1.5617
 Ivac, M/SEC                2050.0   2815.9   2824.8   2833.2   2841.2   2848.9
 Isp, M/SEC                 1089.7   2552.5   2564.7   2576.2   2587.1   2597.4


 MOLE FRACTIONS

 *CO              0.17434  0.16874  0.14110  0.14054  0.14000  0.13947  0.13896
 *CO2             0.15744  0.16614  0.20056  0.20113  0.20168  0.20221  0.20273
 *H               0.01189  0.00924  0.00031  0.00028  0.00026  0.00024  0.00022
 HO2              0.00001  0.00001  0.00000  0.00000  0.00000  0.00000  0.00000
 *H2              0.08035  0.07913  0.09679  0.09736  0.09791  0.09845  0.09896
 H2O              0.53836  0.55104  0.56108  0.56055  0.56003  0.55953  0.55903
 *O               0.00240  0.00137  0.00000  0.00000  0.00000  0.00000  0.00000
 *OH              0.02884  0.02052  0.00016  0.00014  0.00012  0.00011  0.00010
 *O2              0.00635  0.00381  0.00000  0.00000  0.00000  0.00000  0.00000

  * THERMODYNAMIC PROPERTIES FITTED TO 20000.K

    PRODUCTS WHICH WERE CONSIDERED BUT WHOSE MOLE FRACTIONS
    WERE LESS THAN 5.000000E-06 FOR ALL ASSIGNED CONDITIONS

 *C              *CH             CH2             CH3             CH2OH          
 CH3O            CH4             CH3OH           CH3OOH          COOH           
 *C2             C2H             C2H2,acetylene  C2H2,vinylidene CH2CO,ketene   
 O(CH)2O         HO(CO)2OH       C2H3,vinyl      CH3CO,acetyl    C2H4           
 C2H4O,ethylen-o CH3CHO,ethanal  CH3COOH         OHCH2COOH       C2H5           
 C2H6            C2H5OH          CH3OCH3         CH3O2CH3        C2O            
 *C3             C3H3,1-propynl  C3H3,2-propynl  C3H4,allene     C3H4,propyne   
 C3H4,cyclo-     C3H5,allyl      C3H6,propylene  C3H6,cyclo-     C3H6O,propylox 
 C3H6O,acetone   C3H6O,propanal  C3H7,n-propyl   C3H7,i-propyl   C3H8           
 C3H8O,1propanol C3H8O,2propanol C3O2            *C4             C4H2,butadiyne 
 C4H4,1,3-cyclo- C4H6,butadiene  C4H6,1butyne    C4H6,2butyne    C4H6,cyclo-    
 C4H8,1-butene   C4H8,cis2-buten C4H8,tr2-butene C4H8,isobutene  C4H8,cyclo-    
 (CH3COOH)2      C4H9,n-butyl    C4H9,i-butyl    C4H9,s-butyl    C4H9,t-butyl   
 C4H10,n-butane  C4H10,isobutane *C5             C5H6,1,3cyclo-  C5H8,cyclo-    
 C5H10,1-pentene C5H10,cyclo-    C5H11,pentyl    C5H11,t-pentyl  C5H12,n-pentane
 C5H12,i-pentane CH3C(CH3)2CH3   C6H2            C6H5,phenyl     C6H5O,phenoxy  
 C6H6            C6H5OH,phenol   C6H10,cyclo-    C6H12,1-hexene  C6H12,cyclo-   
 C6H13,n-hexyl   C6H14,n-hexane  C7H7,benzyl     C7H8            C7H8O,cresol-mx
 C7H14,1-heptene C7H15,n-heptyl  C7H16,n-heptane C7H16,2-methylh C8H8,styrene   
 C8H10,ethylbenz C8H16,1-octene  C8H17,n-octyl   C8H18,n-octane  C8H18,isooctane
 C9H19,n-nonyl   C10H8,naphthale C10H21,n-decyl  C12H9,o-bipheny C12H10,biphenyl
 HCO             HCCO            HCHO,formaldehy HCOOH           H2O2           
 (HCOOH)2        O3              C(gr)           H2O(cr)         H2O(L)         

 NOTE. WEIGHT FRACTION OF FUEL IN TOTAL FUELS AND OF OXIDANT IN TOTAL OXIDANTS






 POINT ITN      T            C           H           O 
   1    2    3013.701     -16.255     -10.306     -16.307
 Pinf/Pt = 1.729639
   2    4    2851.899     -16.455     -10.490     -16.732
 Pinf/Pt = 1.732339
   2    2    2851.437     -16.455     -10.490     -16.733
   3    5    1970.657     -15.952     -11.178     -20.930
   4    3    1950.270     -15.906     -11.190     -21.080
   5    3    1931.236     -15.861     -11.201     -21.224
   6    3    1913.395     -15.818     -11.211     -21.361
   7    3    1896.617     -15.777     -11.221     -21.493
   8    3    1880.790     -15.736     -11.231     -21.620





              THEORETICAL ROCKET PERFORMANCE ASSUMING EQUILIBRIUM

           COMPOSITION DURING EXPANSION FROM INFINITE AREA COMBUSTOR

 Pin =   232.1 PSIA
 CASE = ethanol-75-gox 

             REACTANT                    WT FRACTION      ENERGY      TEMP
                                          (SEE NOTE)     KJ/KG-MOL      K  
 FUEL        C2H5OH(L)                    0.7500000   -277526.835    298.000
 FUEL        H2O(L)                       0.2500000   -285841.390    298.000
 OXIDANT     O2                           1.0000000        -4.407    298.000

 O/F=    1.20000  %FUEL= 45.454545  R,EQ.RATIO= 1.215652  PHI,EQ.RATIO= 1.302361

                 CHAMBER   THROAT     EXIT     EXIT     EXIT     EXIT     EXIT     EXIT
 Pinf/P            1.0000   1.7323   27.719   29.567   31.415   33.263   35.111   36.959
 P, BAR            16.000   9.2361  0.57722  0.54114  0.50931  0.48101  0.45570  0.43291
 T, K             3013.70  2851.44  1970.66  1950.27  1931.24  1913.40  1896.62  1880.79
 RHO, KG/CU M    1.4322 0 8.8185-1 8.1307-2 7.7026-2 7.3213-2 6.9793-2 6.6707-2 6.3907-2
 H, KJ/KG        -3856.81 -4451.37 -6883.36 -6928.93 -6971.32 -7010.89 -7047.99 -7082.89
 U, KJ/KG        -4974.01 -5498.72 -7593.28 -7631.47 -7666.97 -7700.09 -7731.12 -7760.30
 G, KJ/KG        -40283.6 -38916.9 -30702.8 -30502.0 -30314.3 -30138.2 -29972.5 -29816.1
 S, KJ/(KG)(K)    12.0871  12.0871  12.0871  12.0871  12.0871  12.0871  12.0871  12.0871

 M, (1/n)          22.429   22.636   23.080   23.081   23.082   23.083   23.084   23.085
 (dLV/dLP)t      -1.01657 -1.01152 -1.00022 -1.00020 -1.00017 -1.00016 -1.00014 -1.00012
 (dLV/dLT)p        1.3523   1.2592   1.0069   1.0061   1.0054   1.0048   1.0043   1.0039
 Cp, KJ/(KG)(K)    5.1060   4.4546   2.2561   2.2445   2.2343   2.2253   2.2173   2.2102
 GAMMAs            1.1315   1.1354   1.1928   1.1937   1.1944   1.1951   1.1958   1.1963
 SON VEL,M/SEC     1124.3   1090.5    920.2    915.8    911.5    907.6    903.8    900.2
 MACH NUMBER        0.000    1.000    2.674    2.707    2.738    2.767    2.795    2.822

 PERFORMANCE PARAMETERS

 Ae/At                      1.0000   4.8072   5.0365   5.2627   5.4858   5.7062   5.9239
 CSTAR, M/SEC               1663.9   1663.9   1663.9   1663.9   1663.9   1663.9   1663.9
 CF                         0.6554   1.4787   1.4898   1.5000   1.5095   1.5184   1.5266
 Ivac, M/SEC                2050.9   2748.9   2762.2   2774.5   2786.0   2796.7   2806.8
 Isp, M/SEC                 1090.5   2460.3   2478.8   2495.8   2511.6   2526.3   2540.1


 MOLE FRACTIONS

 *CO              0.17423  0.16866  0.14487  0.14418  0.14351  0.14287  0.14225  0.14166
 *CO2             0.15771  0.16636  0.19672  0.19743  0.19811  0.19876  0.19939  0.20000
 *H               0.01167  0.00905  0.00053  0.00048  0.00043  0.00039  0.00035  0.00032
 HO2              0.00001  0.00001  0.00000  0.00000  0.00000  0.00000  0.00000  0.00000
 *H2              0.08016  0.07899  0.09296  0.09366  0.09434  0.09499  0.09562  0.09623
 H2O              0.53912  0.55168  0.56457  0.56395  0.56335  0.56276  0.56218  0.56162
 *O               0.00233  0.00132  0.00000  0.00000  0.00000  0.00000  0.00000  0.00000
 *OH              0.02853  0.02023  0.00035  0.00030  0.00026  0.00022  0.00019  0.00017
 *O2              0.00620  0.00369  0.00000  0.00000  0.00000  0.00000  0.00000  0.00000

  * THERMODYNAMIC PROPERTIES FITTED TO 20000.K

    PRODUCTS WHICH WERE CONSIDERED BUT WHOSE MOLE FRACTIONS
    WERE LESS THAN 5.000000E-06 FOR ALL ASSIGNED CONDITIONS

 *C              *CH             CH2             CH3             CH2OH          
 CH3O            CH4             CH3OH           CH3OOH          COOH           
 *C2             C2H             C2H2,acetylene  C2H2,vinylidene CH2CO,ketene   
 O(CH)2O         HO(CO)2OH       C2H3,vinyl      CH3CO,acetyl    C2H4           
 C2H4O,ethylen-o CH3CHO,ethanal  CH3COOH         OHCH2COOH       C2H5           
 C2H6            C2H5OH          CH3OCH3         CH3O2CH3        C2O            
 *C3             C3H3,1-propynl  C3H3,2-propynl  C3H4,allene     C3H4,propyne   
 C3H4,cyclo-     C3H5,allyl      C3H6,propylene  C3H6,cyclo-     C3H6O,propylox 
 C3H6O,acetone   C3H6O,propanal  C3H7,n-propyl   C3H7,i-propyl   C3H8           
 C3H8O,1propanol C3H8O,2propanol C3O2            *C4             C4H2,butadiyne 
 C4H4,1,3-cyclo- C4H6,butadiene  C4H6,1butyne    C4H6,2butyne    C4H6,cyclo-    
 C4H8,1-butene   C4H8,cis2-buten C4H8,tr2-butene C4H8,isobutene  C4H8,cyclo-    
 (CH3COOH)2      C4H9,n-butyl    C4H9,i-butyl    C4H9,s-butyl    C4H9,t-butyl   
 C4H10,n-butane  C4H10,isobutane *C5             C5H6,1,3cyclo-  C5H8,cyclo-    
 C5H10,1-pentene C5H10,cyclo-    C5H11,pentyl    C5H11,t-pentyl  C5H12,n-pentane
 C5H12,i-pentane CH3C(CH3)2CH3   C6H2            C6H5,phenyl     C6H5O,phenoxy  
 C6H6            C6H5OH,phenol   C6H10,cyclo-    C6H12,1-hexene  C6H12,cyclo-   
 C6H13,n-hexyl   C6H14,n-hexane  C7H7,benzyl     C7H8            C7H8O,cresol-mx
 C7H14,1-heptene C7H15,n-heptyl  C7H16,n-heptane C7H16,2-methylh C8H8,styrene   
 C8H10,ethylbenz C8H16,1-octene  C8H17,n-octyl   C8H18,n-octane  C8H18,isooctane
 C9H19,n-nonyl   C10H8,naphthale C10H21,n-decyl  C12H9,o-bipheny C12H10,biphenyl
 HCO             HCCO            HCHO,formaldehy HCOOH           H2O2           
 (HCOOH)2        O3              C(gr)           H2O(cr)         H2O(L)         

 NOTE. WEIGHT FRACTION OF FUEL IN TOTAL FUELS AND OF OXIDANT IN TOTAL OXIDANTS





   3    3    1865.818     -15.697     -11.240     -21.742
   4    3    1851.620     -15.659     -11.248     -21.860
   5    2    1838.125     -15.622     -11.256     -21.973
   6    2    1825.270     -15.586     -11.264     -22.083
   7    2    1813.002     -15.551     -11.271     -22.189





              THEORETICAL ROCKET PERFORMANCE ASSUMING EQUILIBRIUM

           COMPOSITION DURING EXPANSION FROM INFINITE AREA COMBUSTOR

 Pin =   232.1 PSIA
 CASE = ethanol-75-gox 

             REACTANT                    WT FRACTION      ENERGY      TEMP
                                          (SEE NOTE)     KJ/KG-MOL      K  
 FUEL        C2H5OH(L)                    0.7500000   -277526.835    298.000
 FUEL        H2O(L)                       0.2500000   -285841.390    298.000
 OXIDANT     O2                           1.0000000        -4.407    298.000

 O/F=    1.20000  %FUEL= 45.454545  R,EQ.RATIO= 1.215652  PHI,EQ.RATIO= 1.302361

                 CHAMBER   THROAT     EXIT     EXIT     EXIT     EXIT     EXIT
 Pinf/P            1.0000   1.7323   38.807   40.655   42.503   44.351   46.199
 P, BAR            16.000   9.2361  0.41230  0.39356  0.37644  0.36076  0.34633
 T, K             3013.70  2851.44  1865.82  1851.62  1838.12  1825.27  1813.00
 RHO, KG/CU M    1.4322 0 8.8185-1 6.1353-2 5.9015-2 5.6864-2 5.4880-2 5.3042-2
 H, KJ/KG        -3856.81 -4451.37 -7115.80 -7146.95 -7176.48 -7204.56 -7231.30
 U, KJ/KG        -4974.01 -5498.72 -7787.81 -7813.82 -7838.49 -7861.92 -7884.24
 G, KJ/KG        -40283.6 -38916.9 -29668.1 -29527.6 -29394.0 -29266.7 -29145.2
 S, KJ/(KG)(K)    12.0871  12.0871  12.0871  12.0871  12.0871  12.0871  12.0871

 M, (1/n)          22.429   22.636   23.085   23.086   23.086   23.086   23.087
 (dLV/dLP)t      -1.01657 -1.01152 -1.00011 -1.00010 -1.00009 -1.00008 -1.00008
 (dLV/dLT)p        1.3523   1.2592   1.0036   1.0032   1.0030   1.0027   1.0025
 Cp, KJ/(KG)(K)    5.1060   4.4546   2.2038   2.1980   2.1927   2.1879   2.1834
 GAMMAs            1.1315   1.1354   1.1969   1.1973   1.1978   1.1982   1.1986
 SON VEL,M/SEC     1124.3   1090.5    896.8    893.6    890.5    887.5    884.6
 MACH NUMBER        0.000    1.000    2.847    2.871    2.894    2.916    2.937

 PERFORMANCE PARAMETERS

 Ae/At                      1.0000   6.1392   6.3522   6.5630   6.7718   6.9786
 CSTAR, M/SEC               1663.9   1663.9   1663.9   1663.9   1663.9   1663.9
 CF                         0.6554   1.5344   1.5417   1.5486   1.5552   1.5614
 Ivac, M/SEC                2050.9   2816.3   2825.2   2833.6   2841.6   2849.2
 Isp, M/SEC                 1090.5   2553.0   2565.2   2576.7   2587.6   2597.9


 MOLE FRACTIONS

 *CO              0.17423  0.16866  0.14108  0.14052  0.13998  0.13945  0.13894
 *CO2             0.15771  0.16636  0.20059  0.20115  0.20170  0.20223  0.20275
 *H               0.01167  0.00905  0.00030  0.00027  0.00025  0.00023  0.00021
 HO2              0.00001  0.00001  0.00000  0.00000  0.00000  0.00000  0.00000
 *H2              0.08016  0.07899  0.09682  0.09738  0.09793  0.09847  0.09899
 H2O              0.53912  0.55168  0.56107  0.56054  0.56002  0.55951  0.55902
 *O               0.00233  0.00132  0.00000  0.00000  0.00000  0.00000  0.00000
 *OH              0.02853  0.02023  0.00015  0.00013  0.00012  0.00010  0.00009
 *O2              0.00620  0.00369  0.00000  0.00000  0.00000  0.00000  0.00000

  * THERMODYNAMIC PROPERTIES FITTED TO 20000.K

    PRODUCTS WHICH WERE CONSIDERED BUT WHOSE MOLE FRACTIONS
    WERE LESS THAN 5.000000E-06 FOR ALL ASSIGNED CONDITIONS

 *C              *CH             CH2             CH3             CH2OH          
 CH3O            CH4             CH3OH           CH3OOH          COOH           
 *C2             C2H             C2H2,acetylene  C2H2,vinylidene CH2CO,ketene   
 O(CH)2O         HO(CO)2OH       C2H3,vinyl      CH3CO,acetyl    C2H4           
 C2H4O,ethylen-o CH3CHO,ethanal  CH3COOH         OHCH2COOH       C2H5           
 C2H6            C2H5OH          CH3OCH3         CH3O2CH3        C2O            
 *C3             C3H3,1-propynl  C3H3,2-propynl  C3H4,allene     C3H4,propyne   
 C3H4,cyclo-     C3H5,allyl      C3H6,propylene  C3H6,cyclo-     C3H6O,propylox 
 C3H6O,acetone   C3H6O,propanal  C3H7,n-propyl   C3H7,i-propyl   C3H8           
 C3H8O,1propanol C3H8O,2propanol C3O2            *C4             C4H2,butadiyne 
 C4H4,1,3-cyclo- C4H6,butadiene  C4H6,1butyne    C4H6,2butyne    C4H6,cyclo-    
 C4H8,1-butene   C4H8,cis2-buten C4H8,tr2-butene C4H8,isobutene  C4H8,cyclo-    
 (CH3COOH)2      C4H9,n-butyl    C4H9,i-butyl    C4H9,s-butyl    C4H9,t-butyl   
 C4H10,n-butane  C4H10,isobutane *C5             C5H6,1,3cyclo-  C5H8,cyclo-    
 C5H10,1-pentene C5H10,cyclo-    C5H11,pentyl    C5H11,t-pentyl  C5H12,n-pentane
 C5H12,i-pentane CH3C(CH3)2CH3   C6H2            C6H5,phenyl     C6H5O,phenoxy  
 C6H6            C6H5OH,phenol   C6H10,cyclo-    C6H12,1-hexene  C6H12,cyclo-   
 C6H13,n-hexyl   C6H14,n-hexane  C7H7,benzyl     C7H8            C7H8O,cresol-mx
 C7H14,1-heptene C7H15,n-heptyl  C7H16,n-heptane C7H16,2-methylh C8H8,styrene   
 C8H10,ethylbenz C8H16,1-octene  C8H17,n-octyl   C8H18,n-octane  C8H18,isooctane
 C9H19,n-nonyl   C10H8,naphthale C10H21,n-decyl  C12H9,o-bipheny C12H10,biphenyl
 HCO             HCCO            HCHO,formaldehy HCOOH           H2O2           
 (HCOOH)2        O3              C(gr)           H2O(cr)         H2O(L)         

 NOTE. WEIGHT FRACTION OF FUEL IN TOTAL FUELS AND OF OXIDANT IN TOTAL OXIDANTS






 POINT ITN      T            C           H           O 
   1    2    3018.360     -16.210     -10.279     -16.291
 Pinf/Pt = 1.729922
   2    4    2855.400     -16.407     -10.462     -16.718
 Pinf/Pt = 1.732690
   2    2    2854.923     -16.408     -10.463     -16.720
   3    5    1970.235     -15.889     -11.147     -20.933
   4    3    1949.836     -15.843     -11.159     -21.084
   5    3    1930.790     -15.798     -11.170     -21.227
   6    3    1912.941     -15.755     -11.181     -21.365
   7    3    1896.155     -15.713     -11.191     -21.497
   8    3    1880.322     -15.673     -11.200     -21.624





              THEORETICAL ROCKET PERFORMANCE ASSUMING EQUILIBRIUM

           COMPOSITION DURING EXPANSION FROM INFINITE AREA COMBUSTOR

 Pin =   246.6 PSIA
 CASE = ethanol-75-gox 

             REACTANT                    WT FRACTION      ENERGY      TEMP
                                          (SEE NOTE)     KJ/KG-MOL      K  
 FUEL        C2H5OH(L)                    0.7500000   -277526.835    298.000
 FUEL        H2O(L)                       0.2500000   -285841.390    298.000
 OXIDANT     O2                           1.0000000        -4.407    298.000

 O/F=    1.20000  %FUEL= 45.454545  R,EQ.RATIO= 1.215652  PHI,EQ.RATIO= 1.302361

                 CHAMBER   THROAT     EXIT     EXIT     EXIT     EXIT     EXIT     EXIT
 Pinf/P            1.0000   1.7327   27.719   29.567   31.415   33.263   35.111   36.959
 P, BAR            17.000   9.8113  0.61329  0.57496  0.54114  0.51108  0.48418  0.45997
 T, K             3018.36  2854.92  1970.24  1949.84  1930.79  1912.94  1896.16  1880.32
 RHO, KG/CU M    1.5200 0 9.3598-1 8.6409-2 8.1860-2 7.7808-2 7.4174-2 7.0894-2 6.7918-2
 H, KJ/KG        -3856.81 -4452.17 -6884.59 -6930.16 -6972.53 -7012.10 -7049.19 -7084.08
 U, KJ/KG        -4975.22 -5500.40 -7594.35 -7632.54 -7668.02 -7701.13 -7732.15 -7761.32
 G, KJ/KG        -40272.1 -38895.7 -30654.7 -30454.2 -30266.8 -30091.0 -29925.6 -29769.4
 S, KJ/(KG)(K)    12.0646  12.0646  12.0646  12.0646  12.0646  12.0646  12.0646  12.0646

 M, (1/n)          22.439   22.645   23.080   23.082   23.083   23.084   23.084   23.085
 (dLV/dLP)t      -1.01632 -1.01130 -1.00022 -1.00019 -1.00017 -1.00015 -1.00013 -1.00012
 (dLV/dLT)p        1.3464   1.2540   1.0066   1.0059   1.0052   1.0047   1.0042   1.0038
 Cp, KJ/(KG)(K)    5.0558   4.4089   2.2535   2.2421   2.2321   2.2234   2.2156   2.2086
 GAMMAs            1.1319   1.1359   1.1930   1.1938   1.1946   1.1953   1.1959   1.1965
 SON VEL,M/SEC     1125.1   1091.2    920.2    915.7    911.5    907.5    903.7    900.2
 MACH NUMBER        0.000    1.000    2.674    2.707    2.739    2.768    2.796    2.822

 PERFORMANCE PARAMETERS

 Ae/At                      1.0000   4.8033   5.0324   5.2584   5.4813   5.7015   5.9190
 CSTAR, M/SEC               1664.5   1664.5   1664.5   1664.5   1664.5   1664.5   1664.5
 CF                         0.6556   1.4784   1.4895   1.4997   1.5092   1.5181   1.5263
 Ivac, M/SEC                2051.8   2749.2   2762.6   2774.9   2786.4   2797.1   2807.1
 Isp, M/SEC                 1091.2   2460.8   2479.3   2496.3   2512.1   2526.8   2540.6


 MOLE FRACTIONS

 *CO              0.17413  0.16858  0.14486  0.14416  0.14350  0.14286  0.14224  0.14164
 *CO2             0.15797  0.16656  0.19673  0.19745  0.19813  0.19878  0.19941  0.20002
 *H               0.01147  0.00888  0.00052  0.00046  0.00042  0.00038  0.00034  0.00031
 HO2              0.00001  0.00001  0.00000  0.00000  0.00000  0.00000  0.00000  0.00000
 *H2              0.07999  0.07885  0.09297  0.09368  0.09436  0.09501  0.09564  0.09625
 H2O              0.53983  0.55228  0.56458  0.56395  0.56335  0.56275  0.56218  0.56161
 *O               0.00228  0.00128  0.00000  0.00000  0.00000  0.00000  0.00000  0.00000
 *OH              0.02824  0.01996  0.00033  0.00029  0.00025  0.00021  0.00019  0.00016
 *O2              0.00607  0.00359  0.00000  0.00000  0.00000  0.00000  0.00000  0.00000

  * THERMODYNAMIC PROPERTIES FITTED TO 20000.K

    PRODUCTS WHICH WERE CONSIDERED BUT WHOSE MOLE FRACTIONS
    WERE LESS THAN 5.000000E-06 FOR ALL ASSIGNED CONDITIONS

 *C              *CH             CH2             CH3             CH2OH          
 CH3O            CH4             CH3OH           CH3OOH          COOH           
 *C2             C2H             C2H2,acetylene  C2H2,vinylidene CH2CO,ketene   
 O(CH)2O         HO(CO)2OH       C2H3,vinyl      CH3CO,acetyl    C2H4           
 C2H4O,ethylen-o CH3CHO,ethanal  CH3COOH         OHCH2COOH       C2H5           
 C2H6            C2H5OH          CH3OCH3         CH3O2CH3        C2O            
 *C3             C3H3,1-propynl  C3H3,2-propynl  C3H4,allene     C3H4,propyne   
 C3H4,cyclo-     C3H5,allyl      C3H6,propylene  C3H6,cyclo-     C3H6O,propylox 
 C3H6O,acetone   C3H6O,propanal  C3H7,n-propyl   C3H7,i-propyl   C3H8           
 C3H8O,1propanol C3H8O,2propanol C3O2            *C4             C4H2,butadiyne 
 C4H4,1,3-cyclo- C4H6,butadiene  C4H6,1butyne    C4H6,2butyne    C4H6,cyclo-    
 C4H8,1-butene   C4H8,cis2-buten C4H8,tr2-butene C4H8,isobutene  C4H8,cyclo-    
 (CH3COOH)2      C4H9,n-butyl    C4H9,i-butyl    C4H9,s-butyl    C4H9,t-butyl   
 C4H10,n-butane  C4H10,isobutane *C5             C5H6,1,3cyclo-  C5H8,cyclo-    
 C5H10,1-pentene C5H10,cyclo-    C5H11,pentyl    C5H11,t-pentyl  C5H12,n-pentane
 C5H12,i-pentane CH3C(CH3)2CH3   C6H2            C6H5,phenyl     C6H5O,phenoxy  
 C6H6            C6H5OH,phenol   C6H10,cyclo-    C6H12,1-hexene  C6H12,cyclo-   
 C6H13,n-hexyl   C6H14,n-hexane  C7H7,benzyl     C7H8            C7H8O,cresol-mx
 C7H14,1-heptene C7H15,n-heptyl  C7H16,n-heptane C7H16,2-methylh C8H8,styrene   
 C8H10,ethylbenz C8H16,1-octene  C8H17,n-octyl   C8H18,n-octane  C8H18,isooctane
 C9H19,n-nonyl   C10H8,naphthale C10H21,n-decyl  C12H9,o-bipheny C12H10,biphenyl
 HCO             HCCO            HCHO,formaldehy HCOOH           H2O2           
 (HCOOH)2        O3              C(gr)           H2O(cr)         H2O(L)         

 NOTE. WEIGHT FRACTION OF FUEL IN TOTAL FUELS AND OF OXIDANT IN TOTAL OXIDANTS





   3    3    1865.346     -15.634     -11.209     -21.746
   4    3    1851.144     -15.596     -11.217     -21.863
   5    2    1837.646     -15.559     -11.225     -21.977
   6    2    1824.789     -15.523     -11.233     -22.087
   7    2    1812.518     -15.488     -11.240     -22.194





              THEORETICAL ROCKET PERFORMANCE ASSUMING EQUILIBRIUM

           COMPOSITION DURING EXPANSION FROM INFINITE AREA COMBUSTOR

 Pin =   246.6 PSIA
 CASE = ethanol-75-gox 

             REACTANT                    WT FRACTION      ENERGY      TEMP
                                          (SEE NOTE)     KJ/KG-MOL      K  
 FUEL        C2H5OH(L)                    0.7500000   -277526.835    298.000
 FUEL        H2O(L)                       0.2500000   -285841.390    298.000
 OXIDANT     O2                           1.0000000        -4.407    298.000

 O/F=    1.20000  %FUEL= 45.454545  R,EQ.RATIO= 1.215652  PHI,EQ.RATIO= 1.302361

                 CHAMBER   THROAT     EXIT     EXIT     EXIT     EXIT     EXIT
 Pinf/P            1.0000   1.7327   38.807   40.655   42.503   44.351   46.199
 P, BAR            17.000   9.8113  0.43807  0.41815  0.39997  0.38331  0.36797
 T, K             3018.36  2854.92  1865.35  1851.14  1837.65  1824.79  1812.52
 RHO, KG/CU M    1.5200 0 9.3598-1 6.5205-2 6.2720-2 6.0435-2 5.8325-2 5.6372-2
 H, KJ/KG        -3856.81 -4452.17 -7116.99 -7148.12 -7177.65 -7205.72 -7232.45
 U, KJ/KG        -4975.22 -5500.40 -7788.82 -7814.82 -7839.48 -7862.90 -7885.21
 G, KJ/KG        -40272.1 -38895.7 -29621.6 -29481.4 -29348.1 -29221.1 -29099.8
 S, KJ/(KG)(K)    12.0646  12.0646  12.0646  12.0646  12.0646  12.0646  12.0646

 M, (1/n)          22.439   22.645   23.085   23.086   23.086   23.087   23.087
 (dLV/dLP)t      -1.01632 -1.01130 -1.00011 -1.00010 -1.00009 -1.00008 -1.00007
 (dLV/dLT)p        1.3464   1.2540   1.0034   1.0031   1.0029   1.0026   1.0024
 Cp, KJ/(KG)(K)    5.0558   4.4089   2.2023   2.1966   2.1914   2.1867   2.1824
 GAMMAs            1.1319   1.1359   1.1970   1.1974   1.1979   1.1983   1.1987
 SON VEL,M/SEC     1125.1   1091.2    896.7    893.5    890.4    887.4    884.6
 MACH NUMBER        0.000    1.000    2.848    2.871    2.894    2.916    2.937

 PERFORMANCE PARAMETERS

 Ae/At                      1.0000   6.1342   6.3470   6.5576   6.7662   6.9729
 CSTAR, M/SEC               1664.5   1664.5   1664.5   1664.5   1664.5   1664.5
 CF                         0.6556   1.5341   1.5414   1.5483   1.5548   1.5610
 Ivac, M/SEC                2051.8   2816.6   2825.5   2834.0   2841.9   2849.5
 Isp, M/SEC                 1091.2   2553.5   2565.7   2577.1   2588.0   2598.3


 MOLE FRACTIONS

 *CO              0.17413  0.16858  0.14106  0.14050  0.13996  0.13943  0.13892
 *CO2             0.15797  0.16656  0.20061  0.20117  0.20172  0.20226  0.20277
 *H               0.01147  0.00888  0.00029  0.00026  0.00024  0.00022  0.00021
 HO2              0.00001  0.00001  0.00000  0.00000  0.00000  0.00000  0.00000
 *H2              0.07999  0.07885  0.09684  0.09741  0.09796  0.09849  0.09901
 H2O              0.53983  0.55228  0.56106  0.56053  0.56001  0.55950  0.55900
 *O               0.00228  0.00128  0.00000  0.00000  0.00000  0.00000  0.00000
 *OH              0.02824  0.01996  0.00014  0.00013  0.00011  0.00010  0.00009
 *O2              0.00607  0.00359  0.00000  0.00000  0.00000  0.00000  0.00000

  * THERMODYNAMIC PROPERTIES FITTED TO 20000.K

    PRODUCTS WHICH WERE CONSIDERED BUT WHOSE MOLE FRACTIONS
    WERE LESS THAN 5.000000E-06 FOR ALL ASSIGNED CONDITIONS

 *C              *CH             CH2             CH3             CH2OH          
 CH3O            CH4             CH3OH           CH3OOH          COOH           
 *C2             C2H             C2H2,acetylene  C2H2,vinylidene CH2CO,ketene   
 O(CH)2O         HO(CO)2OH       C2H3,vinyl      CH3CO,acetyl    C2H4           
 C2H4O,ethylen-o CH3CHO,ethanal  CH3COOH         OHCH2COOH       C2H5           
 C2H6            C2H5OH          CH3OCH3         CH3O2CH3        C2O            
 *C3             C3H3,1-propynl  C3H3,2-propynl  C3H4,allene     C3H4,propyne   
 C3H4,cyclo-     C3H5,allyl      C3H6,propylene  C3H6,cyclo-     C3H6O,propylox 
 C3H6O,acetone   C3H6O,propanal  C3H7,n-propyl   C3H7,i-propyl   C3H8           
 C3H8O,1propanol C3H8O,2propanol C3O2            *C4             C4H2,butadiyne 
 C4H4,1,3-cyclo- C4H6,butadiene  C4H6,1butyne    C4H6,2butyne    C4H6,cyclo-    
 C4H8,1-butene   C4H8,cis2-buten C4H8,tr2-butene C4H8,isobutene  C4H8,cyclo-    
 (CH3COOH)2      C4H9,n-butyl    C4H9,i-butyl    C4H9,s-butyl    C4H9,t-butyl   
 C4H10,n-butane  C4H10,isobutane *C5             C5H6,1,3cyclo-  C5H8,cyclo-    
 C5H10,1-pentene C5H10,cyclo-    C5H11,pentyl    C5H11,t-pentyl  C5H12,n-pentane
 C5H12,i-pentane CH3C(CH3)2CH3   C6H2            C6H5,phenyl     C6H5O,phenoxy  
 C6H6            C6H5OH,phenol   C6H10,cyclo-    C6H12,1-hexene  C6H12,cyclo-   
 C6H13,n-hexyl   C6H14,n-hexane  C7H7,benzyl     C7H8            C7H8O,cresol-mx
 C7H14,1-heptene C7H15,n-heptyl  C7H16,n-heptane C7H16,2-methylh C8H8,styrene   
 C8H10,ethylbenz C8H16,1-octene  C8H17,n-octyl   C8H18,n-octane  C8H18,isooctane
 C9H19,n-nonyl   C10H8,naphthale C10H21,n-decyl  C12H9,o-bipheny C12H10,biphenyl
 HCO             HCCO            HCHO,formaldehy HCOOH           H2O2           
 (HCOOH)2        O3              C(gr)           H2O(cr)         H2O(L)         

 NOTE. WEIGHT FRACTION OF FUEL IN TOTAL FUELS AND OF OXIDANT IN TOTAL OXIDANTS






 POINT ITN      T            C           H           O 
   1    2    3022.728     -16.167     -10.254     -16.276
 Pinf/Pt = 1.730191
   2    4    2858.668     -16.362     -10.437     -16.706
 Pinf/Pt = 1.733022
   2    2    2858.178     -16.363     -10.437     -16.707
   3    5    1969.842     -15.829     -11.118     -20.936
   4    3    1949.430     -15.783     -11.130     -21.087
   5    3    1930.374     -15.739     -11.141     -21.231
   6    3    1912.517     -15.695     -11.152     -21.368
   7    3    1895.725     -15.654     -11.162     -21.500
   8    3    1879.887     -15.613     -11.171     -21.627





              THEORETICAL ROCKET PERFORMANCE ASSUMING EQUILIBRIUM

           COMPOSITION DURING EXPANSION FROM INFINITE AREA COMBUSTOR

 Pin =   261.1 PSIA
 CASE = ethanol-75-gox 

             REACTANT                    WT FRACTION      ENERGY      TEMP
                                          (SEE NOTE)     KJ/KG-MOL      K  
 FUEL        C2H5OH(L)                    0.7500000   -277526.835    298.000
 FUEL        H2O(L)                       0.2500000   -285841.390    298.000
 OXIDANT     O2                           1.0000000        -4.407    298.000

 O/F=    1.20000  %FUEL= 45.454545  R,EQ.RATIO= 1.215652  PHI,EQ.RATIO= 1.302361

                 CHAMBER   THROAT     EXIT     EXIT     EXIT     EXIT     EXIT     EXIT
 Pinf/P            1.0000   1.7330   27.719   29.567   31.415   33.263   35.111   36.959
 P, BAR            18.000   10.386  0.64937  0.60878  0.57297  0.54114  0.51266  0.48703
 T, K             3022.73  2858.18  1969.84  1949.43  1930.37  1912.52  1895.73  1879.89
 RHO, KG/CU M    1.6078 0 9.9007-1 9.1511-2 8.6694-2 8.2403-2 7.8555-2 7.5082-2 7.1931-2
 H, KJ/KG        -3856.81 -4452.91 -6885.75 -6931.30 -6973.67 -7013.23 -7050.31 -7085.18
 U, KJ/KG        -4976.36 -5501.98 -7595.35 -7633.52 -7668.99 -7702.09 -7733.11 -7762.26
 G, KJ/KG        -40260.8 -38875.2 -30609.4 -30409.1 -30222.0 -30046.5 -29881.3 -29725.5
 S, KJ/(KG)(K)    12.0434  12.0434  12.0434  12.0434  12.0434  12.0434  12.0434  12.0434

 M, (1/n)          22.449   22.653   23.081   23.082   23.083   23.084   23.084   23.085
 (dLV/dLP)t      -1.01608 -1.01109 -1.00021 -1.00018 -1.00016 -1.00015 -1.00013 -1.00012
 (dLV/dLT)p        1.3410   1.2491   1.0064   1.0057   1.0051   1.0045   1.0041   1.0037
 Cp, KJ/(KG)(K)    5.0089   4.3663   2.2510   2.2399   2.2302   2.2216   2.2140   2.2071
 GAMMAs            1.1324   1.1365   1.1931   1.1940   1.1947   1.1954   1.1960   1.1966
 SON VEL,M/SEC     1125.9   1091.9    920.1    915.7    911.4    907.5    903.7    900.1
 MACH NUMBER        0.000    1.000    2.675    2.708    2.739    2.769    2.797    2.823

 PERFORMANCE PARAMETERS

 Ae/At                      1.0000   4.7996   5.0286   5.2544   5.4772   5.6971   5.9145
 CSTAR, M/SEC               1665.1   1665.1   1665.1   1665.1   1665.1   1665.1   1665.1
 CF                         0.6558   1.4782   1.4893   1.4995   1.5090   1.5178   1.5261
 Ivac, M/SEC                2052.7   2749.6   2762.9   2775.2   2786.7   2797.4   2807.5
 Isp, M/SEC                 1091.9   2461.3   2479.7   2496.7   2512.5   2527.2   2541.0


 MOLE FRACTIONS

 *CO              0.17403  0.16851  0.14485  0.14415  0.14348  0.14284  0.14222  0.14162
 *CO2             0.15821  0.16675  0.19675  0.19746  0.19814  0.19880  0.19943  0.20004
 *H               0.01129  0.00872  0.00050  0.00045  0.00040  0.00037  0.00033  0.00030
 HO2              0.00001  0.00001  0.00000  0.00000  0.00000  0.00000  0.00000  0.00000
 *H2              0.07983  0.07873  0.09299  0.09370  0.09438  0.09503  0.09566  0.09627
 H2O              0.54050  0.55284  0.56458  0.56396  0.56335  0.56275  0.56217  0.56161
 *O               0.00222  0.00124  0.00000  0.00000  0.00000  0.00000  0.00000  0.00000
 *OH              0.02796  0.01971  0.00032  0.00028  0.00024  0.00021  0.00018  0.00016
 *O2              0.00594  0.00349  0.00000  0.00000  0.00000  0.00000  0.00000  0.00000

  * THERMODYNAMIC PROPERTIES FITTED TO 20000.K

    PRODUCTS WHICH WERE CONSIDERED BUT WHOSE MOLE FRACTIONS
    WERE LESS THAN 5.000000E-06 FOR ALL ASSIGNED CONDITIONS

 *C              *CH             CH2             CH3             CH2OH          
 CH3O            CH4             CH3OH           CH3OOH          COOH           
 *C2             C2H             C2H2,acetylene  C2H2,vinylidene CH2CO,ketene   
 O(CH)2O         HO(CO)2OH       C2H3,vinyl      CH3CO,acetyl    C2H4           
 C2H4O,ethylen-o CH3CHO,ethanal  CH3COOH         OHCH2COOH       C2H5           
 C2H6            C2H5OH          CH3OCH3         CH3O2CH3        C2O            
 *C3             C3H3,1-propynl  C3H3,2-propynl  C3H4,allene     C3H4,propyne   
 C3H4,cyclo-     C3H5,allyl      C3H6,propylene  C3H6,cyclo-     C3H6O,propylox 
 C3H6O,acetone   C3H6O,propanal  C3H7,n-propyl   C3H7,i-propyl   C3H8           
 C3H8O,1propanol C3H8O,2propanol C3O2            *C4             C4H2,butadiyne 
 C4H4,1,3-cyclo- C4H6,butadiene  C4H6,1butyne    C4H6,2butyne    C4H6,cyclo-    
 C4H8,1-butene   C4H8,cis2-buten C4H8,tr2-butene C4H8,isobutene  C4H8,cyclo-    
 (CH3COOH)2      C4H9,n-butyl    C4H9,i-butyl    C4H9,s-butyl    C4H9,t-butyl   
 C4H10,n-butane  C4H10,isobutane *C5             C5H6,1,3cyclo-  C5H8,cyclo-    
 C5H10,1-pentene C5H10,cyclo-    C5H11,pentyl    C5H11,t-pentyl  C5H12,n-pentane
 C5H12,i-pentane CH3C(CH3)2CH3   C6H2            C6H5,phenyl     C6H5O,phenoxy  
 C6H6            C6H5OH,phenol   C6H10,cyclo-    C6H12,1-hexene  C6H12,cyclo-   
 C6H13,n-hexyl   C6H14,n-hexane  C7H7,benzyl     C7H8            C7H8O,cresol-mx
 C7H14,1-heptene C7H15,n-heptyl  C7H16,n-heptane C7H16,2-methylh C8H8,styrene   
 C8H10,ethylbenz C8H16,1-octene  C8H17,n-octyl   C8H18,n-octane  C8H18,isooctane
 C9H19,n-nonyl   C10H8,naphthale C10H21,n-decyl  C12H9,o-bipheny C12H10,biphenyl
 HCO             HCCO            HCHO,formaldehy HCOOH           H2O2           
 (HCOOH)2        O3              C(gr)           H2O(cr)         H2O(L)         

 NOTE. WEIGHT FRACTION OF FUEL IN TOTAL FUELS AND OF OXIDANT IN TOTAL OXIDANTS





   3    3    1864.907     -15.574     -11.180     -21.749
   4    3    1850.701     -15.536     -11.188     -21.867
   5    2    1837.200     -15.499     -11.196     -21.981
   6    2    1824.341     -15.463     -11.204     -22.091
   7    2    1812.069     -15.428     -11.211     -22.197





              THEORETICAL ROCKET PERFORMANCE ASSUMING EQUILIBRIUM

           COMPOSITION DURING EXPANSION FROM INFINITE AREA COMBUSTOR

 Pin =   261.1 PSIA
 CASE = ethanol-75-gox 

             REACTANT                    WT FRACTION      ENERGY      TEMP
                                          (SEE NOTE)     KJ/KG-MOL      K  
 FUEL        C2H5OH(L)                    0.7500000   -277526.835    298.000
 FUEL        H2O(L)                       0.2500000   -285841.390    298.000
 OXIDANT     O2                           1.0000000        -4.407    298.000

 O/F=    1.20000  %FUEL= 45.454545  R,EQ.RATIO= 1.215652  PHI,EQ.RATIO= 1.302361

                 CHAMBER   THROAT     EXIT     EXIT     EXIT     EXIT     EXIT
 Pinf/P            1.0000   1.7330   38.807   40.655   42.503   44.351   46.199
 P, BAR            18.000   10.386  0.46383  0.44275  0.42350  0.40585  0.38962
 T, K             3022.73  2858.18  1864.91  1850.70  1837.20  1824.34  1812.07
 RHO, KG/CU M    1.6078 0 9.9007-1 6.9057-2 6.6425-2 6.4005-2 6.1772-2 5.9703-2
 H, KJ/KG        -3856.81 -4452.91 -7118.08 -7149.21 -7178.73 -7206.79 -7233.52
 U, KJ/KG        -4976.36 -5501.98 -7789.75 -7815.75 -7840.39 -7863.81 -7886.12
 G, KJ/KG        -40260.8 -38875.2 -29578.0 -29438.0 -29304.9 -29178.1 -29057.0
 S, KJ/(KG)(K)    12.0434  12.0434  12.0434  12.0434  12.0434  12.0434  12.0434

 M, (1/n)          22.449   22.653   23.086   23.086   23.086   23.087   23.087
 (dLV/dLP)t      -1.01608 -1.01109 -1.00011 -1.00010 -1.00009 -1.00008 -1.00007
 (dLV/dLT)p        1.3410   1.2491   1.0033   1.0030   1.0028   1.0025   1.0023
 Cp, KJ/(KG)(K)    5.0089   4.3663   2.2010   2.1954   2.1903   2.1856   2.1814
 GAMMAs            1.1324   1.1365   1.1971   1.1975   1.1980   1.1984   1.1987
 SON VEL,M/SEC     1125.9   1091.9    896.7    893.4    890.3    887.3    884.5
 MACH NUMBER        0.000    1.000    2.848    2.872    2.895    2.917    2.938

 PERFORMANCE PARAMETERS

 Ae/At                      1.0000   6.1295   6.3421   6.5526   6.7610   6.9675
 CSTAR, M/SEC               1665.1   1665.1   1665.1   1665.1   1665.1   1665.1
 CF                         0.6558   1.5338   1.5411   1.5480   1.5545   1.5607
 Ivac, M/SEC                2052.7   2816.9   2825.8   2834.3   2842.3   2849.9
 Isp, M/SEC                 1091.9   2553.9   2566.1   2577.6   2588.4   2598.7


 MOLE FRACTIONS

 *CO              0.17403  0.16851  0.14105  0.14048  0.13994  0.13941  0.13890
 *CO2             0.15821  0.16675  0.20062  0.20119  0.20174  0.20227  0.20279
 *H               0.01129  0.00872  0.00028  0.00025  0.00023  0.00022  0.00020
 HO2              0.00001  0.00001  0.00000  0.00000  0.00000  0.00000  0.00000
 *H2              0.07983  0.07873  0.09686  0.09743  0.09798  0.09851  0.09903
 H2O              0.54050  0.55284  0.56106  0.56052  0.56000  0.55949  0.55899
 *O               0.00222  0.00124  0.00000  0.00000  0.00000  0.00000  0.00000
 *OH              0.02796  0.01971  0.00014  0.00012  0.00011  0.00010  0.00009
 *O2              0.00594  0.00349  0.00000  0.00000  0.00000  0.00000  0.00000

  * THERMODYNAMIC PROPERTIES FITTED TO 20000.K

    PRODUCTS WHICH WERE CONSIDERED BUT WHOSE MOLE FRACTIONS
    WERE LESS THAN 5.000000E-06 FOR ALL ASSIGNED CONDITIONS

 *C              *CH             CH2             CH3             CH2OH          
 CH3O            CH4             CH3OH           CH3OOH          COOH           
 *C2             C2H             C2H2,acetylene  C2H2,vinylidene CH2CO,ketene   
 O(CH)2O         HO(CO)2OH       C2H3,vinyl      CH3CO,acetyl    C2H4           
 C2H4O,ethylen-o CH3CHO,ethanal  CH3COOH         OHCH2COOH       C2H5           
 C2H6            C2H5OH          CH3OCH3         CH3O2CH3        C2O            
 *C3             C3H3,1-propynl  C3H3,2-propynl  C3H4,allene     C3H4,propyne   
 C3H4,cyclo-     C3H5,allyl      C3H6,propylene  C3H6,cyclo-     C3H6O,propylox 
 C3H6O,acetone   C3H6O,propanal  C3H7,n-propyl   C3H7,i-propyl   C3H8           
 C3H8O,1propanol C3H8O,2propanol C3O2            *C4             C4H2,butadiyne 
 C4H4,1,3-cyclo- C4H6,butadiene  C4H6,1butyne    C4H6,2butyne    C4H6,cyclo-    
 C4H8,1-butene   C4H8,cis2-buten C4H8,tr2-butene C4H8,isobutene  C4H8,cyclo-    
 (CH3COOH)2      C4H9,n-butyl    C4H9,i-butyl    C4H9,s-butyl    C4H9,t-butyl   
 C4H10,n-butane  C4H10,isobutane *C5             C5H6,1,3cyclo-  C5H8,cyclo-    
 C5H10,1-pentene C5H10,cyclo-    C5H11,pentyl    C5H11,t-pentyl  C5H12,n-pentane
 C5H12,i-pentane CH3C(CH3)2CH3   C6H2            C6H5,phenyl     C6H5O,phenoxy  
 C6H6            C6H5OH,phenol   C6H10,cyclo-    C6H12,1-hexene  C6H12,cyclo-   
 C6H13,n-hexyl   C6H14,n-hexane  C7H7,benzyl     C7H8            C7H8O,cresol-mx
 C7H14,1-heptene C7H15,n-heptyl  C7H16,n-heptane C7H16,2-methylh C8H8,styrene   
 C8H10,ethylbenz C8H16,1-octene  C8H17,n-octyl   C8H18,n-octane  C8H18,isooctane
 C9H19,n-nonyl   C10H8,naphthale C10H21,n-decyl  C12H9,o-bipheny C12H10,biphenyl
 HCO             HCCO            HCHO,formaldehy HCOOH           H2O2           
 (HCOOH)2        O3              C(gr)           H2O(cr)         H2O(L)         

 NOTE. WEIGHT FRACTION OF FUEL IN TOTAL FUELS AND OF OXIDANT IN TOTAL OXIDANTS






 POINT ITN      T            C           H           O 
   1    2    3026.838     -16.127     -10.231     -16.262
 Pinf/Pt = 1.730446
   2    4    2861.731     -16.319     -10.412     -16.694
 Pinf/Pt = 1.733339
   2    2    2861.227     -16.320     -10.413     -16.696
   3    5    1969.473     -15.773     -11.091     -20.938
   4    3    1949.050     -15.727     -11.103     -21.089
   5    3    1929.985     -15.682     -11.114     -21.234
   6    3    1912.121     -15.639     -11.124     -21.371
   7    3    1895.323     -15.597     -11.134     -21.504
   8    3    1879.480     -15.557     -11.143     -21.631





              THEORETICAL ROCKET PERFORMANCE ASSUMING EQUILIBRIUM

           COMPOSITION DURING EXPANSION FROM INFINITE AREA COMBUSTOR

 Pin =   275.6 PSIA
 CASE = ethanol-75-gox 

             REACTANT                    WT FRACTION      ENERGY      TEMP
                                          (SEE NOTE)     KJ/KG-MOL      K  
 FUEL        C2H5OH(L)                    0.7500000   -277526.835    298.000
 FUEL        H2O(L)                       0.2500000   -285841.390    298.000
 OXIDANT     O2                           1.0000000        -4.407    298.000

 O/F=    1.20000  %FUEL= 45.454545  R,EQ.RATIO= 1.215652  PHI,EQ.RATIO= 1.302361

                 CHAMBER   THROAT     EXIT     EXIT     EXIT     EXIT     EXIT     EXIT
 Pinf/P            1.0000   1.7333   27.719   29.567   31.415   33.263   35.111   36.959
 P, BAR            19.000   10.962  0.68544  0.64260  0.60480  0.57120  0.54114  0.51408
 T, K             3026.84  2861.23  1969.47  1949.05  1929.99  1912.12  1895.32  1879.48
 RHO, KG/CU M    1.6955 0 1.0441 0 9.6614-2 9.1529-2 8.7000-2 8.2937-2 7.9271-2 7.5944-2
 H, KJ/KG        -3856.81 -4453.62 -6886.82 -6932.37 -6974.72 -7014.27 -7051.34 -7086.21
 U, KJ/KG        -4977.43 -5503.46 -7596.28 -7634.44 -7669.90 -7702.99 -7733.99 -7763.14
 G, KJ/KG        -40249.7 -38855.3 -30566.6 -30366.6 -30179.7 -30004.5 -29839.6 -29684.0
 S, KJ/(KG)(K)    12.0234  12.0234  12.0234  12.0234  12.0234  12.0234  12.0234  12.0234

 M, (1/n)          22.458   22.660   23.081   23.082   23.083   23.084   23.085   23.085
 (dLV/dLP)t      -1.01585 -1.01090 -1.00020 -1.00018 -1.00016 -1.00014 -1.00013 -1.00011
 (dLV/dLT)p        1.3358   1.2446   1.0062   1.0055   1.0049   1.0044   1.0039   1.0036
 Cp, KJ/(KG)(K)    4.9650   4.3266   2.2488   2.2380   2.2284   2.2200   2.2125   2.2058
 GAMMAs            1.1328   1.1370   1.1933   1.1941   1.1948   1.1955   1.1961   1.1966
 SON VEL,M/SEC     1126.7   1092.5    920.1    915.6    911.4    907.4    903.6    900.0
 MACH NUMBER        0.000    1.000    2.675    2.709    2.740    2.769    2.797    2.824

 PERFORMANCE PARAMETERS

 Ae/At                      1.0000   4.7963   5.0251   5.2507   5.4733   5.6931   5.9103
 CSTAR, M/SEC               1665.6   1665.6   1665.6   1665.6   1665.6   1665.6   1665.6
 CF                         0.6559   1.4780   1.4890   1.4992   1.5087   1.5176   1.5258
 Ivac, M/SEC                2053.5   2749.9   2763.2   2775.5   2787.0   2797.7   2807.8
 Isp, M/SEC                 1092.5   2461.7   2480.1   2497.2   2512.9   2527.7   2541.4


 MOLE FRACTIONS

 *CO              0.17393  0.16844  0.14484  0.14414  0.14347  0.14283  0.14221  0.14161
 *CO2             0.15844  0.16693  0.19676  0.19748  0.19816  0.19882  0.19945  0.20005
 *H               0.01111  0.00857  0.00049  0.00044  0.00039  0.00036  0.00032  0.00029
 HO2              0.00002  0.00001  0.00000  0.00000  0.00000  0.00000  0.00000  0.00000
 *H2              0.07967  0.07861  0.09301  0.09372  0.09440  0.09505  0.09568  0.09629
 H2O              0.54113  0.55337  0.56459  0.56396  0.56334  0.56275  0.56217  0.56160
 *O               0.00217  0.00121  0.00000  0.00000  0.00000  0.00000  0.00000  0.00000
 *OH              0.02770  0.01946  0.00031  0.00027  0.00023  0.00020  0.00018  0.00015
 *O2              0.00581  0.00340  0.00000  0.00000  0.00000  0.00000  0.00000  0.00000

  * THERMODYNAMIC PROPERTIES FITTED TO 20000.K

    PRODUCTS WHICH WERE CONSIDERED BUT WHOSE MOLE FRACTIONS
    WERE LESS THAN 5.000000E-06 FOR ALL ASSIGNED CONDITIONS

 *C              *CH             CH2             CH3             CH2OH          
 CH3O            CH4             CH3OH           CH3OOH          COOH           
 *C2             C2H             C2H2,acetylene  C2H2,vinylidene CH2CO,ketene   
 O(CH)2O         HO(CO)2OH       C2H3,vinyl      CH3CO,acetyl    C2H4           
 C2H4O,ethylen-o CH3CHO,ethanal  CH3COOH         OHCH2COOH       C2H5           
 C2H6            C2H5OH          CH3OCH3         CH3O2CH3        C2O            
 *C3             C3H3,1-propynl  C3H3,2-propynl  C3H4,allene     C3H4,propyne   
 C3H4,cyclo-     C3H5,allyl      C3H6,propylene  C3H6,cyclo-     C3H6O,propylox 
 C3H6O,acetone   C3H6O,propanal  C3H7,n-propyl   C3H7,i-propyl   C3H8           
 C3H8O,1propanol C3H8O,2propanol C3O2            *C4             C4H2,butadiyne 
 C4H4,1,3-cyclo- C4H6,butadiene  C4H6,1butyne    C4H6,2butyne    C4H6,cyclo-    
 C4H8,1-butene   C4H8,cis2-buten C4H8,tr2-butene C4H8,isobutene  C4H8,cyclo-    
 (CH3COOH)2      C4H9,n-butyl    C4H9,i-butyl    C4H9,s-butyl    C4H9,t-butyl   
 C4H10,n-butane  C4H10,isobutane *C5             C5H6,1,3cyclo-  C5H8,cyclo-    
 C5H10,1-pentene C5H10,cyclo-    C5H11,pentyl    C5H11,t-pentyl  C5H12,n-pentane
 C5H12,i-pentane CH3C(CH3)2CH3   C6H2            C6H5,phenyl     C6H5O,phenoxy  
 C6H6            C6H5OH,phenol   C6H10,cyclo-    C6H12,1-hexene  C6H12,cyclo-   
 C6H13,n-hexyl   C6H14,n-hexane  C7H7,benzyl     C7H8            C7H8O,cresol-mx
 C7H14,1-heptene C7H15,n-heptyl  C7H16,n-heptane C7H16,2-methylh C8H8,styrene   
 C8H10,ethylbenz C8H16,1-octene  C8H17,n-octyl   C8H18,n-octane  C8H18,isooctane
 C9H19,n-nonyl   C10H8,naphthale C10H21,n-decyl  C12H9,o-bipheny C12H10,biphenyl
 HCO             HCCO            HCHO,formaldehy HCOOH           H2O2           
 (HCOOH)2        O3              C(gr)           H2O(cr)         H2O(L)         

 NOTE. WEIGHT FRACTION OF FUEL IN TOTAL FUELS AND OF OXIDANT IN TOTAL OXIDANTS





   3    3    1864.496     -15.517     -11.152     -21.753
   4    3    1850.288     -15.479     -11.161     -21.871
   5    2    1836.784     -15.442     -11.169     -21.984
   6    2    1823.923     -15.406     -11.176     -22.095
   7    2    1811.650     -15.371     -11.184     -22.201





              THEORETICAL ROCKET PERFORMANCE ASSUMING EQUILIBRIUM

           COMPOSITION DURING EXPANSION FROM INFINITE AREA COMBUSTOR

 Pin =   275.6 PSIA
 CASE = ethanol-75-gox 

             REACTANT                    WT FRACTION      ENERGY      TEMP
                                          (SEE NOTE)     KJ/KG-MOL      K  
 FUEL        C2H5OH(L)                    0.7500000   -277526.835    298.000
 FUEL        H2O(L)                       0.2500000   -285841.390    298.000
 OXIDANT     O2                           1.0000000        -4.407    298.000

 O/F=    1.20000  %FUEL= 45.454545  R,EQ.RATIO= 1.215652  PHI,EQ.RATIO= 1.302361

                 CHAMBER   THROAT     EXIT     EXIT     EXIT     EXIT     EXIT
 Pinf/P            1.0000   1.7333   38.807   40.655   42.503   44.351   46.199
 P, BAR            19.000   10.962  0.48960  0.46735  0.44703  0.42840  0.41127
 T, K             3026.84  2861.23  1864.50  1850.29  1836.78  1823.92  1811.65
 RHO, KG/CU M    1.6955 0 1.0441 0 7.2910-2 7.0132-2 6.7577-2 6.5219-2 6.3035-2
 H, KJ/KG        -3856.81 -4453.62 -7119.11 -7150.23 -7179.74 -7207.79 -7234.52
 U, KJ/KG        -4977.43 -5503.46 -7790.62 -7816.61 -7841.25 -7864.66 -7886.96
 G, KJ/KG        -40249.7 -38855.3 -29536.7 -29397.0 -29264.1 -29137.6 -29016.7
 S, KJ/(KG)(K)    12.0234  12.0234  12.0234  12.0234  12.0234  12.0234  12.0234

 M, (1/n)          22.458   22.660   23.086   23.086   23.087   23.087   23.087
 (dLV/dLP)t      -1.01585 -1.01090 -1.00010 -1.00009 -1.00008 -1.00008 -1.00007
 (dLV/dLT)p        1.3358   1.2446   1.0032   1.0029   1.0027   1.0025   1.0023
 Cp, KJ/(KG)(K)    4.9650   4.3266   2.1997   2.1943   2.1893   2.1847   2.1805
 GAMMAs            1.1328   1.1370   1.1972   1.1976   1.1980   1.1984   1.1988
 SON VEL,M/SEC     1126.7   1092.5    896.6    893.3    890.2    887.3    884.4
 MACH NUMBER        0.000    1.000    2.849    2.873    2.896    2.918    2.939

 PERFORMANCE PARAMETERS

 Ae/At                      1.0000   6.1251   6.3376   6.5479   6.7562   6.9626
 CSTAR, M/SEC               1665.6   1665.6   1665.6   1665.6   1665.6   1665.6
 CF                         0.6559   1.5336   1.5409   1.5478   1.5543   1.5605
 Ivac, M/SEC                2053.5   2817.2   2826.1   2834.6   2842.5   2850.1
 Isp, M/SEC                 1092.5   2554.3   2566.5   2578.0   2588.8   2599.1


 MOLE FRACTIONS

 *CO              0.17393  0.16844  0.14103  0.14047  0.13992  0.13940  0.13888
 *CO2             0.15844  0.16693  0.20064  0.20121  0.20176  0.20229  0.20281
 *H               0.01111  0.00857  0.00027  0.00025  0.00023  0.00021  0.00019
 HO2              0.00002  0.00001  0.00000  0.00000  0.00000  0.00000  0.00000
 *H2              0.07967  0.07861  0.09688  0.09744  0.09800  0.09853  0.09905
 H2O              0.54113  0.55337  0.56105  0.56051  0.55999  0.55948  0.55898
 *O               0.00217  0.00121  0.00000  0.00000  0.00000  0.00000  0.00000
 *OH              0.02770  0.01946  0.00014  0.00012  0.00011  0.00009  0.00008
 *O2              0.00581  0.00340  0.00000  0.00000  0.00000  0.00000  0.00000

  * THERMODYNAMIC PROPERTIES FITTED TO 20000.K

    PRODUCTS WHICH WERE CONSIDERED BUT WHOSE MOLE FRACTIONS
    WERE LESS THAN 5.000000E-06 FOR ALL ASSIGNED CONDITIONS

 *C              *CH             CH2             CH3             CH2OH          
 CH3O            CH4             CH3OH           CH3OOH          COOH           
 *C2             C2H             C2H2,acetylene  C2H2,vinylidene CH2CO,ketene   
 O(CH)2O         HO(CO)2OH       C2H3,vinyl      CH3CO,acetyl    C2H4           
 C2H4O,ethylen-o CH3CHO,ethanal  CH3COOH         OHCH2COOH       C2H5           
 C2H6            C2H5OH          CH3OCH3         CH3O2CH3        C2O            
 *C3             C3H3,1-propynl  C3H3,2-propynl  C3H4,allene     C3H4,propyne   
 C3H4,cyclo-     C3H5,allyl      C3H6,propylene  C3H6,cyclo-     C3H6O,propylox 
 C3H6O,acetone   C3H6O,propanal  C3H7,n-propyl   C3H7,i-propyl   C3H8           
 C3H8O,1propanol C3H8O,2propanol C3O2            *C4             C4H2,butadiyne 
 C4H4,1,3-cyclo- C4H6,butadiene  C4H6,1butyne    C4H6,2butyne    C4H6,cyclo-    
 C4H8,1-butene   C4H8,cis2-buten C4H8,tr2-butene C4H8,isobutene  C4H8,cyclo-    
 (CH3COOH)2      C4H9,n-butyl    C4H9,i-butyl    C4H9,s-butyl    C4H9,t-butyl   
 C4H10,n-butane  C4H10,isobutane *C5             C5H6,1,3cyclo-  C5H8,cyclo-    
 C5H10,1-pentene C5H10,cyclo-    C5H11,pentyl    C5H11,t-pentyl  C5H12,n-pentane
 C5H12,i-pentane CH3C(CH3)2CH3   C6H2            C6H5,phenyl     C6H5O,phenoxy  
 C6H6            C6H5OH,phenol   C6H10,cyclo-    C6H12,1-hexene  C6H12,cyclo-   
 C6H13,n-hexyl   C6H14,n-hexane  C7H7,benzyl     C7H8            C7H8O,cresol-mx
 C7H14,1-heptene C7H15,n-heptyl  C7H16,n-heptane C7H16,2-methylh C8H8,styrene   
 C8H10,ethylbenz C8H16,1-octene  C8H17,n-octyl   C8H18,n-octane  C8H18,isooctane
 C9H19,n-nonyl   C10H8,naphthale C10H21,n-decyl  C12H9,o-bipheny C12H10,biphenyl
 HCO             HCCO            HCHO,formaldehy HCOOH           H2O2           
 (HCOOH)2        O3              C(gr)           H2O(cr)         H2O(L)         

 NOTE. WEIGHT FRACTION OF FUEL IN TOTAL FUELS AND OF OXIDANT IN TOTAL OXIDANTS






 POINT ITN      T            C           H           O 
   1    2    3030.716     -16.089     -10.208     -16.249
 Pinf/Pt = 1.730690
   2    4    2864.611     -16.279     -10.389     -16.683
 Pinf/Pt = 1.733640
   2    2    2864.093     -16.279     -10.390     -16.685
   3    5    1969.126     -15.720     -11.065     -20.941
   4    3    1948.693     -15.674     -11.077     -21.092
   5    3    1929.620     -15.629     -11.088     -21.236
   6    3    1911.749     -15.586     -11.098     -21.374
   7    3    1894.946     -15.544     -11.108     -21.507
   8    3    1879.099     -15.503     -11.117     -21.634





              THEORETICAL ROCKET PERFORMANCE ASSUMING EQUILIBRIUM

           COMPOSITION DURING EXPANSION FROM INFINITE AREA COMBUSTOR

 Pin =   290.1 PSIA
 CASE = ethanol-75-gox 

             REACTANT                    WT FRACTION      ENERGY      TEMP
                                          (SEE NOTE)     KJ/KG-MOL      K  
 FUEL        C2H5OH(L)                    0.7500000   -277526.835    298.000
 FUEL        H2O(L)                       0.2500000   -285841.390    298.000
 OXIDANT     O2                           1.0000000        -4.407    298.000

 O/F=    1.20000  %FUEL= 45.454545  R,EQ.RATIO= 1.215652  PHI,EQ.RATIO= 1.302361

                 CHAMBER   THROAT     EXIT     EXIT     EXIT     EXIT     EXIT     EXIT
 Pinf/P            1.0000   1.7336   27.719   29.567   31.415   33.263   35.111   36.959
 P, BAR            20.000   11.536  0.72152  0.67642  0.63663  0.60127  0.56962  0.54114
 T, K             3030.72  2864.09  1969.13  1948.69  1929.62  1911.75  1894.95  1879.10
 RHO, KG/CU M    1.7831 0 1.0981 0 1.0172-1 9.6365-2 9.1597-2 8.7320-2 8.3460-2 7.9957-2
 H, KJ/KG        -3856.81 -4454.29 -6887.82 -6933.36 -6975.71 -7015.25 -7052.31 -7087.18
 U, KJ/KG        -4978.44 -5504.85 -7597.15 -7635.30 -7670.75 -7703.83 -7734.82 -7763.96
 G, KJ/KG        -40238.8 -38836.1 -30526.0 -30326.3 -30139.7 -29964.7 -29800.0 -29644.7
 S, KJ/(KG)(K)    12.0044  12.0044  12.0044  12.0044  12.0044  12.0044  12.0044  12.0044

 M, (1/n)          22.466   22.667   23.081   23.082   23.083   23.084   23.085   23.085
 (dLV/dLP)t      -1.01564 -1.01071 -1.00020 -1.00017 -1.00015 -1.00014 -1.00012 -1.00011
 (dLV/dLT)p        1.3310   1.2403   1.0060   1.0053   1.0048   1.0043   1.0038   1.0035
 Cp, KJ/(KG)(K)    4.9236   4.2893   2.2468   2.2361   2.2268   2.2185   2.2112   2.2046
 GAMMAs            1.1332   1.1374   1.1934   1.1942   1.1950   1.1956   1.1962   1.1967
 SON VEL,M/SEC     1127.4   1093.1    920.1    915.6    911.3    907.3    903.6    900.0
 MACH NUMBER        0.000    1.000    2.676    2.709    2.741    2.770    2.798    2.824

 PERFORMANCE PARAMETERS

 Ae/At                      1.0000   4.7931   5.0217   5.2472   5.4696   5.6893   5.9064
 CSTAR, M/SEC               1666.1   1666.1   1666.1   1666.1   1666.1   1666.1   1666.1
 CF                         0.6561   1.4777   1.4888   1.4990   1.5085   1.5173   1.5256
 Ivac, M/SEC                2054.2   2750.2   2763.5   2775.8   2787.3   2798.0   2808.1
 Isp, M/SEC                 1093.1   2462.1   2480.5   2497.6   2513.3   2528.0   2541.8


 MOLE FRACTIONS

 *CO              0.17385  0.16837  0.14483  0.14413  0.14346  0.14282  0.14220  0.14160
 *CO2             0.15865  0.16710  0.19678  0.19749  0.19817  0.19883  0.19946  0.20007
 *H               0.01095  0.00843  0.00047  0.00042  0.00038  0.00035  0.00031  0.00029
 HO2              0.00002  0.00001  0.00000  0.00000  0.00000  0.00000  0.00000  0.00000
 *H2              0.07953  0.07850  0.09302  0.09373  0.09441  0.09507  0.09570  0.09630
 H2O              0.54173  0.55387  0.56459  0.56396  0.56334  0.56274  0.56216  0.56159
 *O               0.00212  0.00118  0.00000  0.00000  0.00000  0.00000  0.00000  0.00000
 *OH              0.02745  0.01923  0.00031  0.00026  0.00023  0.00020  0.00017  0.00015
 *O2              0.00570  0.00331  0.00000  0.00000  0.00000  0.00000  0.00000  0.00000

  * THERMODYNAMIC PROPERTIES FITTED TO 20000.K

    PRODUCTS WHICH WERE CONSIDERED BUT WHOSE MOLE FRACTIONS
    WERE LESS THAN 5.000000E-06 FOR ALL ASSIGNED CONDITIONS

 *C              *CH             CH2             CH3             CH2OH          
 CH3O            CH4             CH3OH           CH3OOH          COOH           
 *C2             C2H             C2H2,acetylene  C2H2,vinylidene CH2CO,ketene   
 O(CH)2O         HO(CO)2OH       C2H3,vinyl      CH3CO,acetyl    C2H4           
 C2H4O,ethylen-o CH3CHO,ethanal  CH3COOH         OHCH2COOH       C2H5           
 C2H6            C2H5OH          CH3OCH3         CH3O2CH3        C2O            
 *C3             C3H3,1-propynl  C3H3,2-propynl  C3H4,allene     C3H4,propyne   
 C3H4,cyclo-     C3H5,allyl      C3H6,propylene  C3H6,cyclo-     C3H6O,propylox 
 C3H6O,acetone   C3H6O,propanal  C3H7,n-propyl   C3H7,i-propyl   C3H8           
 C3H8O,1propanol C3H8O,2propanol C3O2            *C4             C4H2,butadiyne 
 C4H4,1,3-cyclo- C4H6,butadiene  C4H6,1butyne    C4H6,2butyne    C4H6,cyclo-    
 C4H8,1-butene   C4H8,cis2-buten C4H8,tr2-butene C4H8,isobutene  C4H8,cyclo-    
 (CH3COOH)2      C4H9,n-butyl    C4H9,i-butyl    C4H9,s-butyl    C4H9,t-butyl   
 C4H10,n-butane  C4H10,isobutane *C5             C5H6,1,3cyclo-  C5H8,cyclo-    
 C5H10,1-pentene C5H10,cyclo-    C5H11,pentyl    C5H11,t-pentyl  C5H12,n-pentane
 C5H12,i-pentane CH3C(CH3)2CH3   C6H2            C6H5,phenyl     C6H5O,phenoxy  
 C6H6            C6H5OH,phenol   C6H10,cyclo-    C6H12,1-hexene  C6H12,cyclo-   
 C6H13,n-hexyl   C6H14,n-hexane  C7H7,benzyl     C7H8            C7H8O,cresol-mx
 C7H14,1-heptene C7H15,n-heptyl  C7H16,n-heptane C7H16,2-methylh C8H8,styrene   
 C8H10,ethylbenz C8H16,1-octene  C8H17,n-octyl   C8H18,n-octane  C8H18,isooctane
 C9H19,n-nonyl   C10H8,naphthale C10H21,n-decyl  C12H9,o-bipheny C12H10,biphenyl
 HCO             HCCO            HCHO,formaldehy HCOOH           H2O2           
 (HCOOH)2        O3              C(gr)           H2O(cr)         H2O(L)         

 NOTE. WEIGHT FRACTION OF FUEL IN TOTAL FUELS AND OF OXIDANT IN TOTAL OXIDANTS





   3    3    1864.111     -15.464     -11.126     -21.756
   4    3    1849.900     -15.426     -11.135     -21.874
   5    2    1836.394     -15.389     -11.143     -21.988
   6    2    1823.531     -15.352     -11.150     -22.098
   7    2    1811.257     -15.317     -11.158     -22.205





              THEORETICAL ROCKET PERFORMANCE ASSUMING EQUILIBRIUM

           COMPOSITION DURING EXPANSION FROM INFINITE AREA COMBUSTOR

 Pin =   290.1 PSIA
 CASE = ethanol-75-gox 

             REACTANT                    WT FRACTION      ENERGY      TEMP
                                          (SEE NOTE)     KJ/KG-MOL      K  
 FUEL        C2H5OH(L)                    0.7500000   -277526.835    298.000
 FUEL        H2O(L)                       0.2500000   -285841.390    298.000
 OXIDANT     O2                           1.0000000        -4.407    298.000

 O/F=    1.20000  %FUEL= 45.454545  R,EQ.RATIO= 1.215652  PHI,EQ.RATIO= 1.302361

                 CHAMBER   THROAT     EXIT     EXIT     EXIT     EXIT     EXIT
 Pinf/P            1.0000   1.7336   38.807   40.655   42.503   44.351   46.199
 P, BAR            20.000   11.536  0.51537  0.49194  0.47056  0.45095  0.43291
 T, K             3030.72  2864.09  1864.11  1849.90  1836.39  1823.53  1811.26
 RHO, KG/CU M    1.7831 0 1.0981 0 7.6764-2 7.3839-2 7.1149-2 6.8666-2 6.6367-2
 H, KJ/KG        -3856.81 -4454.29 -7120.06 -7151.18 -7180.68 -7208.73 -7235.45
 U, KJ/KG        -4978.44 -5504.85 -7791.43 -7817.42 -7842.05 -7865.46 -7887.75
 G, KJ/KG        -40238.8 -38836.1 -29497.6 -29358.2 -29225.5 -29099.2 -28978.5
 S, KJ/(KG)(K)    12.0044  12.0044  12.0044  12.0044  12.0044  12.0044  12.0044

 M, (1/n)          22.466   22.667   23.086   23.086   23.087   23.087   23.087
 (dLV/dLP)t      -1.01564 -1.01071 -1.00010 -1.00009 -1.00008 -1.00007 -1.00007
 (dLV/dLT)p        1.3310   1.2403   1.0031   1.0029   1.0026   1.0024   1.0022
 Cp, KJ/(KG)(K)    4.9236   4.2893   2.1986   2.1932   2.1883   2.1838   2.1796
 GAMMAs            1.1332   1.1374   1.1972   1.1977   1.1981   1.1985   1.1989
 SON VEL,M/SEC     1127.4   1093.1    896.5    893.3    890.2    887.2    884.3
 MACH NUMBER        0.000    1.000    2.850    2.874    2.896    2.918    2.940

 PERFORMANCE PARAMETERS

 Ae/At                      1.0000   6.1210   6.3334   6.5436   6.7517   6.9580
 CSTAR, M/SEC               1666.1   1666.1   1666.1   1666.1   1666.1   1666.1
 CF                         0.6561   1.5333   1.5406   1.5475   1.5540   1.5602
 Ivac, M/SEC                2054.2   2817.5   2826.4   2834.8   2842.8   2850.4
 Isp, M/SEC                 1093.1   2554.7   2566.9   2578.3   2589.2   2599.5


 MOLE FRACTIONS

 *CO              0.17385  0.16837  0.14102  0.14045  0.13991  0.13938  0.13887
 *CO2             0.15865  0.16710  0.20066  0.20122  0.20177  0.20231  0.20283
 *H               0.01095  0.00843  0.00026  0.00024  0.00022  0.00020  0.00019
 HO2              0.00002  0.00001  0.00000  0.00000  0.00000  0.00000  0.00000
 *H2              0.07953  0.07850  0.09689  0.09746  0.09801  0.09855  0.09907
 H2O              0.54173  0.55387  0.56104  0.56050  0.55998  0.55947  0.55897
 *O               0.00212  0.00118  0.00000  0.00000  0.00000  0.00000  0.00000
 *OH              0.02745  0.01923  0.00013  0.00012  0.00010  0.00009  0.00008
 *O2              0.00570  0.00331  0.00000  0.00000  0.00000  0.00000  0.00000

  * THERMODYNAMIC PROPERTIES FITTED TO 20000.K

    PRODUCTS WHICH WERE CONSIDERED BUT WHOSE MOLE FRACTIONS
    WERE LESS THAN 5.000000E-06 FOR ALL ASSIGNED CONDITIONS

 *C              *CH             CH2             CH3             CH2OH          
 CH3O            CH4             CH3OH           CH3OOH          COOH           
 *C2             C2H             C2H2,acetylene  C2H2,vinylidene CH2CO,ketene   
 O(CH)2O         HO(CO)2OH       C2H3,vinyl      CH3CO,acetyl    C2H4           
 C2H4O,ethylen-o CH3CHO,ethanal  CH3COOH         OHCH2COOH       C2H5           
 C2H6            C2H5OH          CH3OCH3         CH3O2CH3        C2O            
 *C3             C3H3,1-propynl  C3H3,2-propynl  C3H4,allene     C3H4,propyne   
 C3H4,cyclo-     C3H5,allyl      C3H6,propylene  C3H6,cyclo-     C3H6O,propylox 
 C3H6O,acetone   C3H6O,propanal  C3H7,n-propyl   C3H7,i-propyl   C3H8           
 C3H8O,1propanol C3H8O,2propanol C3O2            *C4             C4H2,butadiyne 
 C4H4,1,3-cyclo- C4H6,butadiene  C4H6,1butyne    C4H6,2butyne    C4H6,cyclo-    
 C4H8,1-butene   C4H8,cis2-buten C4H8,tr2-butene C4H8,isobutene  C4H8,cyclo-    
 (CH3COOH)2      C4H9,n-butyl    C4H9,i-butyl    C4H9,s-butyl    C4H9,t-butyl   
 C4H10,n-butane  C4H10,isobutane *C5             C5H6,1,3cyclo-  C5H8,cyclo-    
 C5H10,1-pentene C5H10,cyclo-    C5H11,pentyl    C5H11,t-pentyl  C5H12,n-pentane
 C5H12,i-pentane CH3C(CH3)2CH3   C6H2            C6H5,phenyl     C6H5O,phenoxy  
 C6H6            C6H5OH,phenol   C6H10,cyclo-    C6H12,1-hexene  C6H12,cyclo-   
 C6H13,n-hexyl   C6H14,n-hexane  C7H7,benzyl     C7H8            C7H8O,cresol-mx
 C7H14,1-heptene C7H15,n-heptyl  C7H16,n-heptane C7H16,2-methylh C8H8,styrene   
 C8H10,ethylbenz C8H16,1-octene  C8H17,n-octyl   C8H18,n-octane  C8H18,isooctane
 C9H19,n-nonyl   C10H8,naphthale C10H21,n-decyl  C12H9,o-bipheny C12H10,biphenyl
 HCO             HCCO            HCHO,formaldehy HCOOH           H2O2           
 (HCOOH)2        O3              C(gr)           H2O(cr)         H2O(L)         

 NOTE. WEIGHT FRACTION OF FUEL IN TOTAL FUELS AND OF OXIDANT IN TOTAL OXIDANTS






 POINT ITN      T            C           H           O 
   1    2    3034.385     -16.052     -10.187     -16.236
 Pinf/Pt = 1.730923
   2    4    2867.325     -16.240     -10.367     -16.673
 Pinf/Pt = 1.733927
   2    2    2866.795     -16.240     -10.368     -16.674
   3    5    1968.799     -15.670     -11.040     -20.943
   4    3    1948.356     -15.623     -11.052     -21.095
   5    3    1929.276     -15.578     -11.063     -21.239
   6    3    1911.399     -15.535     -11.073     -21.377
   7    3    1894.591     -15.493     -11.083     -21.509
   8    3    1878.740     -15.452     -11.093     -21.637





              THEORETICAL ROCKET PERFORMANCE ASSUMING EQUILIBRIUM

           COMPOSITION DURING EXPANSION FROM INFINITE AREA COMBUSTOR

 Pin =   304.6 PSIA
 CASE = ethanol-75-gox 

             REACTANT                    WT FRACTION      ENERGY      TEMP
                                          (SEE NOTE)     KJ/KG-MOL      K  
 FUEL        C2H5OH(L)                    0.7500000   -277526.835    298.000
 FUEL        H2O(L)                       0.2500000   -285841.390    298.000
 OXIDANT     O2                           1.0000000        -4.407    298.000

 O/F=    1.20000  %FUEL= 45.454545  R,EQ.RATIO= 1.215652  PHI,EQ.RATIO= 1.302361

                 CHAMBER   THROAT     EXIT     EXIT     EXIT     EXIT     EXIT     EXIT
 Pinf/P            1.0000   1.7339   27.719   29.567   31.415   33.263   35.111   36.959
 P, BAR            21.000   12.111  0.75760  0.71025  0.66847  0.63133  0.59810  0.56820
 T, K             3034.39  2866.80  1968.80  1948.36  1929.28  1911.40  1894.59  1878.74
 RHO, KG/CU M    1.8707 0 1.1521 0 1.0682-1 1.0120-1 9.6195-2 9.1703-2 8.7650-2 8.3972-2
 H, KJ/KG        -3856.81 -4454.92 -6888.76 -6934.29 -6976.63 -7016.17 -7053.22 -7088.08
 U, KJ/KG        -4979.39 -5506.17 -7597.97 -7636.10 -7671.54 -7704.61 -7735.60 -7764.73
 G, KJ/KG        -40228.1 -38817.4 -30487.5 -30288.0 -30101.6 -29926.9 -29762.5 -29607.3
 S, KJ/(KG)(K)    11.9864  11.9864  11.9864  11.9864  11.9864  11.9864  11.9864  11.9864

 M, (1/n)          22.475   22.674   23.082   23.083   23.084   23.084   23.085   23.085
 (dLV/dLP)t      -1.01544 -1.01054 -1.00019 -1.00017 -1.00015 -1.00013 -1.00012 -1.00011
 (dLV/dLT)p        1.3264   1.2362   1.0059   1.0052   1.0046   1.0041   1.0037   1.0034
 Cp, KJ/(KG)(K)    4.8846   4.2542   2.2449   2.2345   2.2253   2.2171   2.2099   2.2034
 GAMMAs            1.1336   1.1379   1.1935   1.1943   1.1951   1.1957   1.1963   1.1968
 SON VEL,M/SEC     1128.1   1093.7    920.0    915.5    911.3    907.3    903.5    899.9
 MACH NUMBER        0.000    1.000    2.677    2.710    2.741    2.771    2.798    2.825

 PERFORMANCE PARAMETERS

 Ae/At                      1.0000   4.7901   5.0186   5.2439   5.4662   5.6858   5.9027
 CSTAR, M/SEC               1666.6   1666.6   1666.6   1666.6   1666.6   1666.6   1666.6
 CF                         0.6562   1.4775   1.4886   1.4988   1.5083   1.5171   1.5253
 Ivac, M/SEC                2054.9   2750.5   2763.8   2776.1   2787.6   2798.3   2808.3
 Isp, M/SEC                 1093.7   2462.5   2480.9   2497.9   2513.7   2528.4   2542.2


 MOLE FRACTIONS

 *CO              0.17376  0.16831  0.14482  0.14412  0.14345  0.14281  0.14218  0.14158
 *CO2             0.15886  0.16726  0.19679  0.19751  0.19819  0.19884  0.19948  0.20008
 *H               0.01079  0.00830  0.00046  0.00041  0.00037  0.00034  0.00031  0.00028
 HO2              0.00002  0.00001  0.00000  0.00000  0.00000  0.00000  0.00000  0.00000
 *H2              0.07939  0.07839  0.09303  0.09374  0.09443  0.09508  0.09571  0.09632
 H2O              0.54229  0.55433  0.56460  0.56396  0.56334  0.56274  0.56216  0.56159
 *O               0.00208  0.00115  0.00000  0.00000  0.00000  0.00000  0.00000  0.00000
 *OH              0.02721  0.01901  0.00030  0.00025  0.00022  0.00019  0.00017  0.00015
 *O2              0.00559  0.00323  0.00000  0.00000  0.00000  0.00000  0.00000  0.00000

  * THERMODYNAMIC PROPERTIES FITTED TO 20000.K

    PRODUCTS WHICH WERE CONSIDERED BUT WHOSE MOLE FRACTIONS
    WERE LESS THAN 5.000000E-06 FOR ALL ASSIGNED CONDITIONS

 *C              *CH             CH2             CH3             CH2OH          
 CH3O            CH4             CH3OH           CH3OOH          COOH           
 *C2             C2H             C2H2,acetylene  C2H2,vinylidene CH2CO,ketene   
 O(CH)2O         HO(CO)2OH       C2H3,vinyl      CH3CO,acetyl    C2H4           
 C2H4O,ethylen-o CH3CHO,ethanal  CH3COOH         OHCH2COOH       C2H5           
[...]
 *H2              0.04833  0.04502  0.03344  0.03340  0.03338  0.03338  0.03340  0.03343
 H2O              0.53848  0.55404  0.61515  0.61591  0.61658  0.61717  0.61769  0.61815
 H2O2             0.00001  0.00001  0.00000  0.00000  0.00000  0.00000  0.00000  0.00000
 *O               0.00616  0.00464  0.00030  0.00026  0.00023  0.00021  0.00018  0.00016
 *OH              0.04887  0.04062  0.00745  0.00692  0.00644  0.00600  0.00560  0.00523
 *O2              0.02691  0.02256  0.00227  0.00201  0.00179  0.00159  0.00142  0.00126

  * THERMODYNAMIC PROPERTIES FITTED TO 20000.K

    PRODUCTS WHICH WERE CONSIDERED BUT WHOSE MOLE FRACTIONS
    WERE LESS THAN 5.000000E-06 FOR ALL ASSIGNED CONDITIONS

 *C              *CH             CH2             CH3             CH2OH          
 CH3O            CH4             CH3OH           CH3OOH          COOH           
 *C2             C2H             C2H2,acetylene  C2H2,vinylidene CH2CO,ketene   
 O(CH)2O         HO(CO)2OH       C2H3,vinyl      CH3CO,acetyl    C2H4           
 C2H4O,ethylen-o CH3CHO,ethanal  CH3COOH         OHCH2COOH       C2H5           
 C2H6            C2H5OH          CH3OCH3         CH3O2CH3        C2O            
 *C3             C3H3,1-propynl  C3H3,2-propynl  C3H4,allene     C3H4,propyne   
 C3H4,cyclo-     C3H5,allyl      C3H6,propylene  C3H6,cyclo-     C3H6O,propylox 
 C3H6O,acetone   C3H6O,propanal  C3H7,n-propyl   C3H7,i-propyl   C3H8           
 C3H8O,1propanol C3H8O,2propanol C3O2            *C4             C4H2,butadiyne 
 C4H4,1,3-cyclo- C4H6,butadiene  C4H6,1butyne    C4H6,2butyne    C4H6,cyclo-    
 C4H8,1-butene   C4H8,cis2-buten C4H8,tr2-butene C4H8,isobutene  C4H8,cyclo-    
 (CH3COOH)2      C4H9,n-butyl    C4H9,i-butyl    C4H9,s-butyl    C4H9,t-butyl   
 C4H10,n-butane  C4H10,isobutane *C5             C5H6,1,3cyclo-  C5H8,cyclo-    
 C5H10,1-pentene C5H10,cyclo-    C5H11,pentyl    C5H11,t-pentyl  C5H12,n-pentane
 C5H12,i-pentane CH3C(CH3)2CH3   C6H2            C6H5,phenyl     C6H5O,phenoxy  
 C6H6            C6H5OH,phenol   C6H10,cyclo-    C6H12,1-hexene  C6H12,cyclo-   
 C6H13,n-hexyl   C6H14,n-hexane  C7H7,benzyl     C7H8            C7H8O,cresol-mx
 C7H14,1-heptene C7H15,n-heptyl  C7H16,n-heptane C7H16,2-methylh C8H8,styrene   
 C8H10,ethylbenz C8H16,1-octene  C8H17,n-octyl   C8H18,n-octane  C8H18,isooctane
 C9H19,n-nonyl   C10H8,naphthale C10H21,n-decyl  C12H9,o-bipheny C12H10,biphenyl
 HCO             HCCO            HCHO,formaldehy HCOOH           (HCOOH)2       
 O3              C(gr)           H2O(cr)         H2O(L)         

 NOTE. WEIGHT FRACTION OF FUEL IN TOTAL FUELS AND OF OXIDANT IN TOTAL OXIDANTS





   3    3    2237.039     -18.862     -11.859     -18.218
   4    3    2224.279     -18.860     -11.872     -18.286
   5    3    2212.001     -18.856     -11.884     -18.353
   6    3    2200.171     -18.851     -11.896     -18.418
   7    3    2188.757     -18.846     -11.907     -18.482





              THEORETICAL ROCKET PERFORMANCE ASSUMING EQUILIBRIUM

           COMPOSITION DURING EXPANSION FROM INFINITE AREA COMBUSTOR

 Pin =   348.1 PSIA
 CASE = ethanol-75-gox 

             REACTANT                    WT FRACTION      ENERGY      TEMP
                                          (SEE NOTE)     KJ/KG-MOL      K  
 FUEL        C2H5OH(L)                    0.7500000   -277526.835    298.000
 FUEL        H2O(L)                       0.2500000   -285841.390    298.000
 OXIDANT     O2                           1.0000000        -4.407    298.000

 O/F=    1.40000  %FUEL= 41.666667  R,EQ.RATIO= 1.086499  PHI,EQ.RATIO= 1.116310

                 CHAMBER   THROAT     EXIT     EXIT     EXIT     EXIT     EXIT
 Pinf/P            1.0000   1.7219   38.807   40.655   42.503   44.351   46.199
 P, BAR            24.000   13.938  0.61844  0.59033  0.56467  0.54114  0.51949
 T, K             3148.83  3005.39  2237.04  2224.28  2212.00  2200.17  2188.76
 RHO, KG/CU M    2.1636 0 1.3318 0 8.3376-2 8.0068-2 7.7035-2 7.4242-2 7.1662-2
 H, KJ/KG        -3535.42 -4120.99 -6892.87 -6927.28 -6959.96 -6991.06 -7020.74
 U, KJ/KG        -4644.69 -5167.52 -7634.63 -7664.56 -7692.96 -7719.95 -7745.66
 G, KJ/KG        -40143.0 -39060.9 -32900.2 -32786.2 -32676.2 -32569.7 -32466.7
 S, KJ/(KG)(K)    11.6258  11.6258  11.6258  11.6258  11.6258  11.6258  11.6258

 M, (1/n)          23.602   23.877   25.075   25.084   25.091   25.098   25.104
 (dLV/dLP)t      -1.02879 -1.02491 -1.00280 -1.00259 -1.00239 -1.00222 -1.00206
 (dLV/dLT)p        1.5878   1.5345   1.0817   1.0760   1.0708   1.0660   1.0616
 Cp, KJ/(KG)(K)    6.4939   6.2436   2.9357   2.8820   2.8325   2.7867   2.7445
 GAMMAs            1.1211   1.1191   1.1486   1.1502   1.1517   1.1532   1.1547
 SON VEL,M/SEC     1115.1   1082.2    923.0    920.9    918.8    916.8    914.9
 MACH NUMBER        0.000    1.000    2.807    2.828    2.848    2.867    2.886

 PERFORMANCE PARAMETERS

 Ae/At                      1.0000   6.6710   6.9113   7.1490   7.3845   7.6178
 CSTAR, M/SEC               1665.2   1665.2   1665.2   1665.2   1665.2   1665.2
 CF                         0.6499   1.5562   1.5641   1.5716   1.5788   1.5855
 Ivac, M/SEC                2049.2   2877.6   2887.6   2897.2   2906.2   2914.8
 Isp, M/SEC                 1082.2   2591.3   2604.6   2617.1   2628.9   2640.2


 MOLE FRACTIONS

 *CO              0.13079  0.12178  0.07692  0.07653  0.07618  0.07585  0.07554
 *CO2             0.18941  0.20216  0.26328  0.26377  0.26423  0.26465  0.26504
 *H               0.01097  0.00914  0.00161  0.00154  0.00147  0.00141  0.00135
 HO2              0.00006  0.00004  0.00000  0.00000  0.00000  0.00000  0.00000
 *H2              0.04833  0.04502  0.03347  0.03352  0.03357  0.03364  0.03370
 H2O              0.53848  0.55404  0.61855  0.61891  0.61922  0.61950  0.61974
 H2O2             0.00001  0.00001  0.00000  0.00000  0.00000  0.00000  0.00000
 *O               0.00616  0.00464  0.00015  0.00013  0.00012  0.00011  0.00009
 *OH              0.04887  0.04062  0.00490  0.00459  0.00430  0.00404  0.00380
 *O2              0.02691  0.02256  0.00113  0.00101  0.00091  0.00082  0.00073

  * THERMODYNAMIC PROPERTIES FITTED TO 20000.K

    PRODUCTS WHICH WERE CONSIDERED BUT WHOSE MOLE FRACTIONS
    WERE LESS THAN 5.000000E-06 FOR ALL ASSIGNED CONDITIONS

 *C              *CH             CH2             CH3             CH2OH          
 CH3O            CH4             CH3OH           CH3OOH          COOH           
 *C2             C2H             C2H2,acetylene  C2H2,vinylidene CH2CO,ketene   
 O(CH)2O         HO(CO)2OH       C2H3,vinyl      CH3CO,acetyl    C2H4           
 C2H4O,ethylen-o CH3CHO,ethanal  CH3COOH         OHCH2COOH       C2H5           
 C2H6            C2H5OH          CH3OCH3         CH3O2CH3        C2O            
 *C3             C3H3,1-propynl  C3H3,2-propynl  C3H4,allene     C3H4,propyne   
 C3H4,cyclo-     C3H5,allyl      C3H6,propylene  C3H6,cyclo-     C3H6O,propylox 
 C3H6O,acetone   C3H6O,propanal  C3H7,n-propyl   C3H7,i-propyl   C3H8           
 C3H8O,1propanol C3H8O,2propanol C3O2            *C4             C4H2,butadiyne 
 C4H4,1,3-cyclo- C4H6,butadiene  C4H6,1butyne    C4H6,2butyne    C4H6,cyclo-    
 C4H8,1-butene   C4H8,cis2-buten C4H8,tr2-butene C4H8,isobutene  C4H8,cyclo-    
 (CH3COOH)2      C4H9,n-butyl    C4H9,i-butyl    C4H9,s-butyl    C4H9,t-butyl   
 C4H10,n-butane  C4H10,isobutane *C5             C5H6,1,3cyclo-  C5H8,cyclo-    
 C5H10,1-pentene C5H10,cyclo-    C5H11,pentyl    C5H11,t-pentyl  C5H12,n-pentane
 C5H12,i-pentane CH3C(CH3)2CH3   C6H2            C6H5,phenyl     C6H5O,phenoxy  
 C6H6            C6H5OH,phenol   C6H10,cyclo-    C6H12,1-hexene  C6H12,cyclo-   
 C6H13,n-hexyl   C6H14,n-hexane  C7H7,benzyl     C7H8            C7H8O,cresol-mx
 C7H14,1-heptene C7H15,n-heptyl  C7H16,n-heptane C7H16,2-methylh C8H8,styrene   
 C8H10,ethylbenz C8H16,1-octene  C8H17,n-octyl   C8H18,n-octane  C8H18,isooctane
 C9H19,n-nonyl   C10H8,naphthale C10H21,n-decyl  C12H9,o-bipheny C12H10,biphenyl
 HCO             HCCO            HCHO,formaldehy HCOOH           (HCOOH)2       
 O3              C(gr)           H2O(cr)         H2O(L)         

 NOTE. WEIGHT FRACTION OF FUEL IN TOTAL FUELS AND OF OXIDANT IN TOTAL OXIDANTS






 POINT ITN      T            C           H           O 
   1    2    3152.932     -16.937     -10.418     -15.443
 Pinf/Pt = 1.723377
   2    3    3008.748     -17.310     -10.642     -15.711
 Pinf/Pt = 1.722048
   2    2    3008.947     -17.309     -10.642     -15.711
   3    5    2327.271     -18.805     -11.737     -17.769
   4    3    2310.361     -18.814     -11.757     -17.848
   5    3    2294.323     -18.820     -11.776     -17.926
   6    3    2279.065     -18.824     -11.794     -18.001
   7    3    2264.505     -18.826     -11.810     -18.074
   8    3    2250.579     -18.826     -11.825     -18.146





              THEORETICAL ROCKET PERFORMANCE ASSUMING EQUILIBRIUM

           COMPOSITION DURING EXPANSION FROM INFINITE AREA COMBUSTOR

 Pin =   362.6 PSIA
 CASE = ethanol-75-gox 

             REACTANT                    WT FRACTION      ENERGY      TEMP
                                          (SEE NOTE)     KJ/KG-MOL      K  
 FUEL        C2H5OH(L)                    0.7500000   -277526.835    298.000
 FUEL        H2O(L)                       0.2500000   -285841.390    298.000
 OXIDANT     O2                           1.0000000        -4.407    298.000

 O/F=    1.40000  %FUEL= 41.666667  R,EQ.RATIO= 1.086499  PHI,EQ.RATIO= 1.116310

                 CHAMBER   THROAT     EXIT     EXIT     EXIT     EXIT     EXIT     EXIT
 Pinf/P            1.0000   1.7220   27.719   29.567   31.415   33.263   35.111   36.959
 P, BAR            25.000   14.518  0.90190  0.84553  0.79579  0.75158  0.71203  0.67642
 T, K             3152.93  3008.95  2327.27  2310.36  2294.32  2279.06  2264.51  2250.58
 RHO, KG/CU M    2.2517 0 1.3861 0 1.1656-1 1.1014-1 1.0444-1 9.9349-2 9.4767-2 9.0621-2
 H, KJ/KG        -3535.42 -4121.56 -6639.77 -6689.52 -6735.88 -6779.28 -6820.04 -6858.45
 U, KJ/KG        -4645.68 -5168.93 -7413.55 -7457.20 -7497.83 -7535.79 -7571.39 -7604.89
 G, KJ/KG        -40145.3 -39059.6 -33662.6 -33516.0 -33376.2 -33242.4 -33114.1 -32990.8
 S, KJ/(KG)(K)    11.6114  11.6114  11.6114  11.6114  11.6114  11.6114  11.6114  11.6114

 M, (1/n)          23.612   23.887   25.007   25.023   25.036   25.048   25.059   25.069
 (dLV/dLP)t      -1.02863 -1.02477 -1.00451 -1.00413 -1.00379 -1.00348 -1.00321 -1.00295
 (dLV/dLT)p        1.5841   1.5308   1.1268   1.1170   1.1081   1.1000   1.0926   1.0858
 Cp, KJ/(KG)(K)    6.4610   6.2109   3.3437   3.2567   3.1768   3.1033   3.0357   2.9734
 GAMMAs            1.1212   1.1193   1.1386   1.1405   1.1423   1.1441   1.1458   1.1475
 SON VEL,M/SEC     1115.7   1082.7    938.6    935.7    932.9    930.3    927.9    925.5
 MACH NUMBER        0.000    1.000    2.655    2.684    2.712    2.738    2.762    2.786

 PERFORMANCE PARAMETERS

 Ae/At                     1.00000   5.1674   5.4252   5.6796   5.9307   6.1788   6.4240
 CSTAR, M/SEC               1665.8   1665.8   1665.8   1665.8   1665.8   1665.8   1665.8
 CF                         0.6500   1.4958   1.5077   1.5188   1.5290   1.5386   1.5476
 Ivac, M/SEC                2050.1   2802.3   2817.3   2831.2   2844.1   2856.2   2867.5
 Isp, M/SEC                 1082.7   2491.7   2511.6   2530.0   2547.1   2563.1   2578.0


 MOLE FRACTIONS

 *CO              0.13056  0.12155  0.07996  0.07931  0.07873  0.07819  0.07771  0.07726
 *CO2             0.18977  0.20251  0.25931  0.26016  0.26093  0.26163  0.26227  0.26285
 *H               0.01086  0.00904  0.00214  0.00203  0.00193  0.00183  0.00174  0.00166
 HO2              0.00006  0.00004  0.00000  0.00000  0.00000  0.00000  0.00000  0.00000
 *H2              0.04816  0.04486  0.03338  0.03334  0.03333  0.03334  0.03336  0.03339
 H2O              0.53905  0.55458  0.61538  0.61613  0.61679  0.61737  0.61788  0.61833
 H2O2             0.00001  0.00001  0.00000  0.00000  0.00000  0.00000  0.00000  0.00000
 *O               0.00610  0.00458  0.00029  0.00025  0.00022  0.00020  0.00018  0.00016
 *OH              0.04870  0.04045  0.00734  0.00681  0.00633  0.00590  0.00550  0.00514
 *O2              0.02674  0.02238  0.00220  0.00195  0.00173  0.00154  0.00137  0.00122

  * THERMODYNAMIC PROPERTIES FITTED TO 20000.K

    PRODUCTS WHICH WERE CONSIDERED BUT WHOSE MOLE FRACTIONS
    WERE LESS THAN 5.000000E-06 FOR ALL ASSIGNED CONDITIONS

 *C              *CH             CH2             CH3             CH2OH          
 CH3O            CH4             CH3OH           CH3OOH          COOH           
 *C2             C2H             C2H2,acetylene  C2H2,vinylidene CH2CO,ketene   
 O(CH)2O         HO(CO)2OH       C2H3,vinyl      CH3CO,acetyl    C2H4           
 C2H4O,ethylen-o CH3CHO,ethanal  CH3COOH         OHCH2COOH       C2H5           
 C2H6            C2H5OH          CH3OCH3         CH3O2CH3        C2O            
 *C3             C3H3,1-propynl  C3H3,2-propynl  C3H4,allene     C3H4,propyne   
 C3H4,cyclo-     C3H5,allyl      C3H6,propylene  C3H6,cyclo-     C3H6O,propylox 
 C3H6O,acetone   C3H6O,propanal  C3H7,n-propyl   C3H7,i-propyl   C3H8           
 C3H8O,1propanol C3H8O,2propanol C3O2            *C4             C4H2,butadiyne 
 C4H4,1,3-cyclo- C4H6,butadiene  C4H6,1butyne    C4H6,2butyne    C4H6,cyclo-    
 C4H8,1-butene   C4H8,cis2-buten C4H8,tr2-butene C4H8,isobutene  C4H8,cyclo-    
 (CH3COOH)2      C4H9,n-butyl    C4H9,i-butyl    C4H9,s-butyl    C4H9,t-butyl   
 C4H10,n-butane  C4H10,isobutane *C5             C5H6,1,3cyclo-  C5H8,cyclo-    
 C5H10,1-pentene C5H10,cyclo-    C5H11,pentyl    C5H11,t-pentyl  C5H12,n-pentane
 C5H12,i-pentane CH3C(CH3)2CH3   C6H2            C6H5,phenyl     C6H5O,phenoxy  
 C6H6            C6H5OH,phenol   C6H10,cyclo-    C6H12,1-hexene  C6H12,cyclo-   
 C6H13,n-hexyl   C6H14,n-hexane  C7H7,benzyl     C7H8            C7H8O,cresol-mx
 C7H14,1-heptene C7H15,n-heptyl  C7H16,n-heptane C7H16,2-methylh C8H8,styrene   
 C8H10,ethylbenz C8H16,1-octene  C8H17,n-octyl   C8H18,n-octane  C8H18,isooctane
 C9H19,n-nonyl   C10H8,naphthale C10H21,n-decyl  C12H9,o-bipheny C12H10,biphenyl
 HCO             HCCO            HCHO,formaldehy HCOOH           (HCOOH)2       
 O3              C(gr)           H2O(cr)         H2O(L)         

 NOTE. WEIGHT FRACTION OF FUEL IN TOTAL FUELS AND OF OXIDANT IN TOTAL OXIDANTS





   3    3    2237.230     -18.824     -11.839     -18.216
   4    3    2224.409     -18.822     -11.852     -18.284
   5    3    2212.075     -18.818     -11.864     -18.351
   6    3    2200.192     -18.812     -11.876     -18.417
   7    3    2188.728     -18.806     -11.887     -18.481





              THEORETICAL ROCKET PERFORMANCE ASSUMING EQUILIBRIUM

           COMPOSITION DURING EXPANSION FROM INFINITE AREA COMBUSTOR

 Pin =   362.6 PSIA
 CASE = ethanol-75-gox 

             REACTANT                    WT FRACTION      ENERGY      TEMP
                                          (SEE NOTE)     KJ/KG-MOL      K  
 FUEL        C2H5OH(L)                    0.7500000   -277526.835    298.000
 FUEL        H2O(L)                       0.2500000   -285841.390    298.000
 OXIDANT     O2                           1.0000000        -4.407    298.000

 O/F=    1.40000  %FUEL= 41.666667  R,EQ.RATIO= 1.086499  PHI,EQ.RATIO= 1.116310

                 CHAMBER   THROAT     EXIT     EXIT     EXIT     EXIT     EXIT
 Pinf/P            1.0000   1.7220   38.807   40.655   42.503   44.351   46.199
 P, BAR            25.000   14.518  0.64421  0.61493  0.58819  0.56369  0.54114
 T, K             3152.93  3008.95  2237.23  2224.41  2212.08  2200.19  2188.73
 RHO, KG/CU M    2.2517 0 1.3861 0 8.6851-2 8.3408-2 8.0250-2 7.7342-2 7.4655-2
 H, KJ/KG        -3535.42 -4121.56 -6894.76 -6929.16 -6961.84 -6992.94 -7022.62
 U, KJ/KG        -4645.68 -5168.93 -7636.50 -7666.42 -7694.79 -7721.77 -7747.47
 G, KJ/KG        -40145.3 -39059.6 -32872.1 -32757.6 -32647.1 -32540.2 -32436.8
 S, KJ/(KG)(K)    11.6114  11.6114  11.6114  11.6114  11.6114  11.6114  11.6114

 M, (1/n)          23.612   23.887   25.078   25.086   25.093   25.100   25.106
 (dLV/dLP)t      -1.02863 -1.02477 -1.00273 -1.00252 -1.00233 -1.00216 -1.00201
 (dLV/dLT)p        1.5841   1.5308   1.0797   1.0741   1.0690   1.0643   1.0600
 Cp, KJ/(KG)(K)    6.4610   6.2109   2.9162   2.8634   2.8147   2.7699   2.7284
 GAMMAs            1.1212   1.1193   1.1492   1.1508   1.1523   1.1538   1.1552
 SON VEL,M/SEC     1115.7   1082.7    923.3    921.1    919.0    917.0    915.1
 MACH NUMBER        0.000    1.000    2.808    2.828    2.848    2.868    2.886

 PERFORMANCE PARAMETERS

 Ae/At                     1.00000   6.6665   6.9064   7.1439   7.3791   7.6121
 CSTAR, M/SEC               1665.8   1665.8   1665.8   1665.8   1665.8   1665.8
 CF                         0.6500   1.5560   1.5640   1.5715   1.5786   1.5854
 Ivac, M/SEC                2050.1   2878.2   2888.3   2897.8   2906.8   2915.4
 Isp, M/SEC                 1082.7   2592.0   2605.3   2617.8   2629.6   2640.9


 MOLE FRACTIONS

 *CO              0.13056  0.12155  0.07685  0.07647  0.07612  0.07579  0.07549
 *CO2             0.18977  0.20251  0.26338  0.26387  0.26432  0.26473  0.26512
 *H               0.01086  0.00904  0.00158  0.00151  0.00144  0.00138  0.00132
 HO2              0.00006  0.00004  0.00000  0.00000  0.00000  0.00000  0.00000
 *H2              0.04816  0.04486  0.03343  0.03348  0.03354  0.03361  0.03368
 H2O              0.53905  0.55458  0.61872  0.61907  0.61937  0.61964  0.61987
 H2O2             0.00001  0.00001  0.00000  0.00000  0.00000  0.00000  0.00000
 *O               0.00610  0.00458  0.00014  0.00013  0.00011  0.00010  0.00009
 *OH              0.04870  0.04045  0.00481  0.00450  0.00422  0.00396  0.00372
 *O2              0.02674  0.02238  0.00109  0.00098  0.00087  0.00078  0.00071

  * THERMODYNAMIC PROPERTIES FITTED TO 20000.K

    PRODUCTS WHICH WERE CONSIDERED BUT WHOSE MOLE FRACTIONS
    WERE LESS THAN 5.000000E-06 FOR ALL ASSIGNED CONDITIONS

 *C              *CH             CH2             CH3             CH2OH          
 CH3O            CH4             CH3OH           CH3OOH          COOH           
 *C2             C2H             C2H2,acetylene  C2H2,vinylidene CH2CO,ketene   
 O(CH)2O         HO(CO)2OH       C2H3,vinyl      CH3CO,acetyl    C2H4           
 C2H4O,ethylen-o CH3CHO,ethanal  CH3COOH         OHCH2COOH       C2H5           
 C2H6            C2H5OH          CH3OCH3         CH3O2CH3        C2O            
 *C3             C3H3,1-propynl  C3H3,2-propynl  C3H4,allene     C3H4,propyne   
 C3H4,cyclo-     C3H5,allyl      C3H6,propylene  C3H6,cyclo-     C3H6O,propylox 
 C3H6O,acetone   C3H6O,propanal  C3H7,n-propyl   C3H7,i-propyl   C3H8           
 C3H8O,1propanol C3H8O,2propanol C3O2            *C4             C4H2,butadiyne 
 C4H4,1,3-cyclo- C4H6,butadiene  C4H6,1butyne    C4H6,2butyne    C4H6,cyclo-    
 C4H8,1-butene   C4H8,cis2-buten C4H8,tr2-butene C4H8,isobutene  C4H8,cyclo-    
 (CH3COOH)2      C4H9,n-butyl    C4H9,i-butyl    C4H9,s-butyl    C4H9,t-butyl   
 C4H10,n-butane  C4H10,isobutane *C5             C5H6,1,3cyclo-  C5H8,cyclo-    
 C5H10,1-pentene C5H10,cyclo-    C5H11,pentyl    C5H11,t-pentyl  C5H12,n-pentane
 C5H12,i-pentane CH3C(CH3)2CH3   C6H2            C6H5,phenyl     C6H5O,phenoxy  
 C6H6            C6H5OH,phenol   C6H10,cyclo-    C6H12,1-hexene  C6H12,cyclo-   
 C6H13,n-hexyl   C6H14,n-hexane  C7H7,benzyl     C7H8            C7H8O,cresol-mx
 C7H14,1-heptene C7H15,n-heptyl  C7H16,n-heptane C7H16,2-methylh C8H8,styrene   
 C8H10,ethylbenz C8H16,1-octene  C8H17,n-octyl   C8H18,n-octane  C8H18,isooctane
 C9H19,n-nonyl   C10H8,naphthale C10H21,n-decyl  C12H9,o-bipheny C12H10,biphenyl
 HCO             HCCO            HCHO,formaldehy HCOOH           (HCOOH)2       
 O3              C(gr)           H2O(cr)         H2O(L)         

 NOTE. WEIGHT FRACTION OF FUEL IN TOTAL FUELS AND OF OXIDANT IN TOTAL OXIDANTS



