
 *******************************************************************************

         NASA-GLENN CHEMICAL EQUILIBRIUM PROGRAM CEA2, MAY 21, 2004
                   BY  BONNIE MCBRIDE AND SANFORD GORDON
      REFS: NASA RP-1311, PART I, 1994 AND NASA RP-1311, PART II, 1996

 *******************************************************************************



 problem  case=ethanol-95-n2o o/f=3.90,3.95,4.00,4.05,4.10,4.15,4.20,
       rocket  equilibrium
   p,bar=12.0,13.0,14.0,15.0,16.0,17.0,18.0,19.0,20.0,21.0,22.0,
   pi/p=12.56007,13.60674,14.65342,15.70009,16.74676,17.79343,18.84011,19.88678,2
 0.93345,21.98013,23.02680,
 react
   fuel=C2H5OH(L) wt=95  t,k=298
   fuel=H2O(L) wt=5  t,k=298
   oxid=N2O wt=100  t,k=298
 end

 OPTIONS: TP=F  HP=F  SP=F  TV=F  UV=F  SV=F  DETN=F  SHOCK=F  REFL=F  INCD=F
 RKT=T  FROZ=F  EQL=T  IONS=F  SIUNIT=T  DEBUGF=F  SHKDBG=F  DETDBG=F  TRNSPT=F

 TRACE= 0.00E+00  S/R= 0.000000E+00  H/R= 0.000000E+00  U/R= 0.000000E+00

 Pc,BAR =    12.000000    13.000000    14.000000    15.000000    16.000000    17.000000    18.000000

 Pc,BAR =    19.000000    20.000000    21.000000    22.000000

 Pc/P =    12.5601    13.6067    14.6534    15.7001    16.7468    17.7934    18.8401    19.8868    20.9335

 Pc/P =    21.9801    23.0268

 SUBSONIC AREA RATIOS =

 SUPERSONIC AREA RATIOS =

 NFZ=  1  Mdot/Ac= 0.000000E+00  Ac/At= 0.000000E+00

    REACTANT          WT.FRAC   (ENERGY/R),K   TEMP,K  DENSITY
        EXPLODED FORMULA
 F: C2H5OH(L)        0.950000  -0.333786E+05   298.00  0.0000
          C  2.00000  H  6.00000  O  1.00000
 F: H2O(L)           0.050000  -0.343786E+05   298.00  0.0000
          H  2.00000  O  1.00000
 O: N2O              1.000000   0.981347E+04   298.00  0.0000
          N  2.00000  O  1.00000

  SPECIES BEING CONSIDERED IN THIS SYSTEM
 (CONDENSED PHASE MAY HAVE NAME LISTED SEVERAL TIMES)
  LAST thermo.inp UPDATE:    9/09/04

  g 7/97  *C               tpis79  *CH              g 4/02  CH2            
  g 4/02  CH3              g11/00  CH2OH            g 7/00  CH3O           
  g 8/99  CH4              g 7/00  CH3OH            srd 01  CH3OOH         
  g 8/99  *CN              g12/99  CNN              tpis79  *CO            
  g 9/99  *CO2             tpis91  COOH             tpis91  *C2            
  g 6/01  C2H              g 1/91  C2H2,acetylene   g 5/01  C2H2,vinylidene
  g 4/02  CH2CO,ketene     g 3/02  O(CH)2O          srd 01  HO(CO)2OH      
  g 7/01  C2H3,vinyl       g 9/00  CH3CN            g 6/96  CH3CO,acetyl   
  g 1/00  C2H4             g 8/88  C2H4O,ethylen-o  g 8/88  CH3CHO,ethanal 
  g 6/00  CH3COOH          srd 01  OHCH2COOH        g 7/00  C2H5           
  g 7/00  C2H6             g 8/88  CH3N2CH3         g 8/88  C2H5OH         
  g 7/00  CH3OCH3          srd 01  CH3O2CH3         g 7/00  CCN            
  tpis91  CNC              srd 01  OCCN             tpis79  C2N2           
  g 8/00  C2O              tpis79  *C3              n 4/98  C3H3,1-propynl 
  n 4/98  C3H3,2-propynl   g 2/00  C3H4,allene      g 1/00  C3H4,propyne   
  g 5/90  C3H4,cyclo-      g 3/01  C3H5,allyl       g 2/00  C3H6,propylene 
  g 1/00  C3H6,cyclo-      g 6/01  C3H6O,propylox   g 6/97  C3H6O,acetone  
  g 1/02  C3H6O,propanal   g 7/01  C3H7,n-propyl    g 9/85  C3H7,i-propyl  
  g 2/00  C3H8             g 2/00  C3H8O,1propanol  g 2/00  C3H8O,2propanol
  srd 01  CNCOCN           g 7/88  C3O2             g tpis  *C4            
  g 7/01  C4H2,butadiyne   g 8/00  C4H4,1,3-cyclo-  n10/92  C4H6,butadiene 
  n10/93  C4H6,1butyne     n10/93  C4H6,2butyne     g 8/00  C4H6,cyclo-    
  n 4/88  C4H8,1-butene    n 4/88  C4H8,cis2-buten  n 4/88  C4H8,tr2-butene
  n 4/88  C4H8,isobutene   g 8/00  C4H8,cyclo-      g10/00  (CH3COOH)2     
  n10/84  C4H9,n-butyl     n10/84  C4H9,i-butyl     g 1/93  C4H9,s-butyl   
  g 1/93  C4H9,t-butyl     g12/00  C4H10,n-butane   g 8/00  C4H10,isobutane
  g 6/01  C4N2             g 8/00  *C5              g 5/90  C5H6,1,3cyclo- 
  g 1/93  C5H8,cyclo-      n 4/87  C5H10,1-pentene  g 2/01  C5H10,cyclo-   
  n10/84  C5H11,pentyl     g 1/93  C5H11,t-pentyl   n10/85  C5H12,n-pentane
  n10/85  C5H12,i-pentane  n10/85  CH3C(CH3)2CH3    g 2/93  C6H2           
  g11/00  C6H5,phenyl      g 8/00  C6H5O,phenoxy    g 8/00  C6H6           
  g 8/00  C6H5OH,phenol    g 1/93  C6H10,cyclo-     n 4/87  C6H12,1-hexene 
  g 6/90  C6H12,cyclo-     n10/83  C6H13,n-hexyl    g 6/01  C6H14,n-hexane 
  g 7/01  C7H7,benzyl      g 1/93  C7H8             g12/00  C7H8O,cresol-mx
  n 4/87  C7H14,1-heptene  n10/83  C7H15,n-heptyl   n10/85  C7H16,n-heptane
  n10/85  C7H16,2-methylh  n 4/89  C8H8,styrene     n10/86  C8H10,ethylbenz
  n 4/87  C8H16,1-octene   n10/83  C8H17,n-octyl    n 4/85  C8H18,n-octane 
  n 4/85  C8H18,isooctane  n10/83  C9H19,n-nonyl    g 3/01  C10H8,naphthale
  n10/83  C10H21,n-decyl   g 8/00  C12H9,o-bipheny  g 8/00  C12H10,biphenyl
  g 6/97  *H               g 6/01  HCN              g 1/01  HCO            
  tpis89  HCCN             g 6/01  HCCO             g 6/01  HNC            
  g 7/00  HNCO             g10/01  HNO              tpis89  HNO2           
  g 5/99  HNO3             g 4/02  HO2              tpis78  *H2            
  g 5/01  HCHO,formaldehy  g 6/01  HCOOH            g 8/89  H2O            
  g 6/99  H2O2             g 6/01  (HCOOH)2         g 5/97  *N             
  g 6/01  NCO              g 4/99  *NH              g 3/01  NH2            
  tpis89  NH3              tpis89  NH2OH            tpis89  *NO            
  g 4/99  NO2              j12/64  NO3              tpis78  *N2            
  g 6/01  NCN              g 5/99  N2H2             tpis89  NH2NO2         
  g 4/99  N2H4             g 4/99  N2O              g 4/99  N2O3           
  tpis89  N2O4             g 4/99  N2O5             tpis89  N3             
  g 4/99  N3H              g 5/97  *O               g 4/02  *OH            
  tpis89  *O2              g 8/01  O3               n 4/83  C(gr)          
  n 4/83  C(gr)            n 4/83  C(gr)            g11/99  H2O(cr)        
  g 8/01  H2O(L)           g 8/01  H2O(L)         

 O/F =   3.900000

                       EFFECTIVE FUEL     EFFECTIVE OXIDANT        MIXTURE
 ENTHALPY                  h(2)/R              h(1)/R               h0/R
 (KG-MOL)(K)/KG       -0.78373206E+03      0.22296858E+03      0.17519469E+02

 KG-FORM.WT./KG             bi(2)               bi(1)               b0i
  *C                   0.41242985E-01      0.00000000E+00      0.84169358E-02
  *H                   0.12927980E+00      0.00000000E+00      0.26383633E-01
  *O                   0.23396914E-01      0.22720663E-01      0.22858674E-01
  *N                   0.00000000E+00      0.45441326E-01      0.36167586E-01

 POINT ITN      T            C           H           O           N 

   1   24    2993.933     -16.312     -10.587     -16.821     -13.351

 Pinf/Pt = 1.744097
   2    4    2796.771     -16.439     -10.756     -17.344     -13.498

 Pinf/Pt = 1.751628
   2    2    2795.217     -16.440     -10.758     -17.349     -13.499

 Pinf/Pt = 1.751708
   2    1    2795.200     -16.440     -10.758     -17.349     -13.499

   3    5    2034.179     -15.592     -11.147     -20.920     -13.916

   4    3    2003.800     -15.515     -11.158     -21.130     -13.930

   5    3    1975.930     -15.442     -11.168     -21.329     -13.944

   6    3    1950.217     -15.371     -11.178     -21.518     -13.956

   7    3    1926.376     -15.303     -11.186     -21.698     -13.968

   8    3    1904.172     -15.237     -11.195     -21.870     -13.979






              THEORETICAL ROCKET PERFORMANCE ASSUMING EQUILIBRIUM

           COMPOSITION DURING EXPANSION FROM INFINITE AREA COMBUSTOR

 Pin =   174.0 PSIA
 CASE = ethanol-95-n2o 

             REACTANT                    WT FRACTION      ENERGY      TEMP
                                          (SEE NOTE)     KJ/KG-MOL      K  
 FUEL        C2H5OH(L)                    0.9500000   -277526.835    298.000
 FUEL        H2O(L)                       0.0500000   -285841.390    298.000
 OXIDANT     N2O                          1.0000000     81594.206    298.000

 O/F=    3.90000  %FUEL= 20.408163  R,EQ.RATIO= 1.313536  PHI,EQ.RATIO= 1.396323

                 CHAMBER   THROAT     EXIT     EXIT     EXIT     EXIT     EXIT     EXIT
 Pinf/P            1.0000   1.7517   12.560   13.607   14.653   15.700   16.747   17.793
 P, BAR            12.000   6.8505  0.95541  0.88192  0.81892  0.76433  0.71656  0.67441
 T, K             2993.93  2795.20  2034.18  2003.80  1975.93  1950.22  1926.38  1904.17
 RHO, KG/CU M    1.1896 0 7.3370-1 1.4226-1 1.3331-1 1.2554-1 1.1873-1 1.1269-1 1.0730-1
 H, KJ/KG          145.67  -398.71 -1978.44 -2031.79 -2080.48 -2125.19 -2166.48 -2204.81
 U, KJ/KG         -863.04 -1332.40 -2650.05 -2693.32 -2732.77 -2768.96 -2802.36 -2833.34
 G, KJ/KG        -31962.6 -30375.7 -23793.9 -23521.4 -23271.2 -23040.2 -22825.8 -22626.0
 S, KJ/(KG)(K)    10.7244  10.7244  10.7244  10.7244  10.7244  10.7244  10.7244  10.7244

 M, (1/n)          24.678   24.891   25.183   25.185   25.186   25.187   25.188   25.189
 (dLV/dLP)t      -1.01127 -1.00670 -1.00021 -1.00017 -1.00015 -1.00012 -1.00011 -1.00009
 (dLV/dLT)p        1.2432   1.1550   1.0061   1.0051   1.0044   1.0037   1.0032   1.0028
 Cp, KJ/(KG)(K)    3.5786   2.9880   1.7722   1.7601   1.7501   1.7417   1.7345   1.7282
 GAMMAs            1.1551   1.1661   1.2321   1.2335   1.2348   1.2358   1.2368   1.2376
 SON VEL,M/SEC     1079.4   1043.4    909.7    903.3    897.5    892.0    886.8    882.0
 MACH NUMBER        0.000    1.000    2.266    2.310    2.351    2.389    2.425    2.458

 PERFORMANCE PARAMETERS

 Ae/At                      1.0000   2.6110   2.7518   2.8900   3.0258   3.1593   3.2908
 CSTAR, M/SEC               1567.5   1567.5   1567.5   1567.5   1567.5   1567.5   1567.5
 CF                         0.6657   1.3149   1.3314   1.3462   1.3596   1.3719   1.3832
 Ivac, M/SEC                1938.3   2387.0   2403.8   2419.2   2433.2   2446.1   2458.1
 Isp, M/SEC                 1043.4   2061.1   2086.8   2110.0   2131.1   2150.4   2168.2


 MOLE FRACTIONS

 *CO              0.13193  0.12725  0.11429  0.11367  0.11307  0.11251  0.11196  0.11143
 *CO2             0.07578  0.08226  0.09768  0.09831  0.09892  0.09950  0.10005  0.10058
 *H               0.01093  0.00743  0.00054  0.00046  0.00040  0.00034  0.00030  0.00026
 HO2              0.00001  0.00000  0.00000  0.00000  0.00000  0.00000  0.00000  0.00000
 *H2              0.05945  0.05817  0.06609  0.06673  0.06734  0.06792  0.06848  0.06902
 H2O              0.25233  0.26139  0.26573  0.26517  0.26463  0.26411  0.26359  0.26309
 *NO              0.00417  0.00221  0.00002  0.00002  0.00001  0.00001  0.00001  0.00001
 *N2              0.44419  0.44903  0.45540  0.45543  0.45546  0.45548  0.45550  0.45551
 *O               0.00172  0.00075  0.00000  0.00000  0.00000  0.00000  0.00000  0.00000
 *OH              0.01661  0.01018  0.00026  0.00021  0.00017  0.00014  0.00011  0.00009
 *O2              0.00289  0.00134  0.00000  0.00000  0.00000  0.00000  0.00000  0.00000

  * THERMODYNAMIC PROPERTIES FITTED TO 20000.K

    PRODUCTS WHICH WERE CONSIDERED BUT WHOSE MOLE FRACTIONS
    WERE LESS THAN 5.000000E-06 FOR ALL ASSIGNED CONDITIONS

 *C              *CH             CH2             CH3             CH2OH          
 CH3O            CH4             CH3OH           CH3OOH          *CN            
 CNN             COOH            *C2             C2H             C2H2,acetylene 
 C2H2,vinylidene CH2CO,ketene    O(CH)2O         HO(CO)2OH       C2H3,vinyl     
 CH3CN           CH3CO,acetyl    C2H4            C2H4O,ethylen-o CH3CHO,ethanal 
 CH3COOH         OHCH2COOH       C2H5            C2H6            CH3N2CH3       
 C2H5OH          CH3OCH3         CH3O2CH3        CCN             CNC            
 OCCN            C2N2            C2O             *C3             C3H3,1-propynl 
 C3H3,2-propynl  C3H4,allene     C3H4,propyne    C3H4,cyclo-     C3H5,allyl     
 C3H6,propylene  C3H6,cyclo-     C3H6O,propylox  C3H6O,acetone   C3H6O,propanal 
 C3H7,n-propyl   C3H7,i-propyl   C3H8            C3H8O,1propanol C3H8O,2propanol
 CNCOCN          C3O2            *C4             C4H2,butadiyne  C4H4,1,3-cyclo-
 C4H6,butadiene  C4H6,1butyne    C4H6,2butyne    C4H6,cyclo-     C4H8,1-butene  
 C4H8,cis2-buten C4H8,tr2-butene C4H8,isobutene  C4H8,cyclo-     (CH3COOH)2     
 C4H9,n-butyl    C4H9,i-butyl    C4H9,s-butyl    C4H9,t-butyl    C4H10,n-butane 
 C4H10,isobutane C4N2            *C5             C5H6,1,3cyclo-  C5H8,cyclo-    
 C5H10,1-pentene C5H10,cyclo-    C5H11,pentyl    C5H11,t-pentyl  C5H12,n-pentane
 C5H12,i-pentane CH3C(CH3)2CH3   C6H2            C6H5,phenyl     C6H5O,phenoxy  
 C6H6            C6H5OH,phenol   C6H10,cyclo-    C6H12,1-hexene  C6H12,cyclo-   
 C6H13,n-hexyl   C6H14,n-hexane  C7H7,benzyl     C7H8            C7H8O,cresol-mx
 C7H14,1-heptene C7H15,n-heptyl  C7H16,n-heptane C7H16,2-methylh C8H8,styrene   
 C8H10,ethylbenz C8H16,1-octene  C8H17,n-octyl   C8H18,n-octane  C8H18,isooctane
 C9H19,n-nonyl   C10H8,naphthale C10H21,n-decyl  C12H9,o-bipheny C12H10,biphenyl
 HCN             HCO             HCCN            HCCO            HNC            
 HNCO            HNO             HNO2            HNO3            HCHO,formaldehy
 HCOOH           H2O2            (HCOOH)2        *N              NCO            
 *NH             NH2             NH3             NH2OH           NO2            
 NO3             NCN             N2H2            NH2NO2          N2H4           
 N2O             N2O3            N2O4            N2O5            N3             
 N3H             O3              C(gr)           H2O(cr)         H2O(L)         

 NOTE. WEIGHT FRACTION OF FUEL IN TOTAL FUELS AND OF OXIDANT IN TOTAL OXIDANTS





   3    3    1883.410     -15.174     -11.202     -22.035     -13.989

   4    3    1863.930     -15.113     -11.210     -22.194     -13.999

   5    3    1845.593     -15.054     -11.216     -22.346     -14.008

   6    3    1828.281     -14.997     -11.223     -22.493     -14.017

   7    2    1811.896     -14.942     -11.229     -22.635     -14.025






              THEORETICAL ROCKET PERFORMANCE ASSUMING EQUILIBRIUM

           COMPOSITION DURING EXPANSION FROM INFINITE AREA COMBUSTOR

 Pin =   174.0 PSIA
 CASE = ethanol-95-n2o 

             REACTANT                    WT FRACTION      ENERGY      TEMP
                                          (SEE NOTE)     KJ/KG-MOL      K  
 FUEL        C2H5OH(L)                    0.9500000   -277526.835    298.000
 FUEL        H2O(L)                       0.0500000   -285841.390    298.000
 OXIDANT     N2O                          1.0000000     81594.206    298.000

 O/F=    3.90000  %FUEL= 20.408163  R,EQ.RATIO= 1.313536  PHI,EQ.RATIO= 1.396323

                 CHAMBER   THROAT     EXIT     EXIT     EXIT     EXIT     EXIT
 Pinf/P            1.0000   1.7517   18.840   19.887   20.933   21.980   23.027
 P, BAR            12.000   6.8505  0.63694  0.60342  0.57325  0.54595  0.52113
 T, K             2993.93  2795.20  1883.41  1863.93  1845.59  1828.28  1811.90
 RHO, KG/CU M    1.1896 0 7.3370-1 1.0246-1 9.8080-2 9.4104-2 9.0472-2 8.7142-2
 H, KJ/KG          145.67  -398.71 -2240.54 -2273.97 -2305.37 -2334.96 -2362.90
 U, KJ/KG         -863.04 -1332.40 -2862.20 -2889.20 -2914.54 -2938.40 -2960.93
 G, KJ/KG        -31962.6 -30375.7 -22439.1 -22263.6 -22098.3 -21942.3 -21794.5
 S, KJ/(KG)(K)    10.7244  10.7244  10.7244  10.7244  10.7244  10.7244  10.7244

 M, (1/n)          24.678   24.891   25.190   25.190   25.191   25.191   25.191
 (dLV/dLP)t      -1.01127 -1.00670 -1.00008 -1.00007 -1.00006 -1.00005 -1.00005
 (dLV/dLT)p        1.2432   1.1550   1.0024   1.0022   1.0019   1.0017   1.0015
 Cp, KJ/(KG)(K)    3.5786   2.9880   1.7228   1.7180   1.7138   1.7100   1.7066
 GAMMAs            1.1551   1.1661   1.2383   1.2390   1.2396   1.2401   1.2406
 SON VEL,M/SEC     1079.4   1043.4    877.4    873.1    869.0    865.1    861.3
 MACH NUMBER        0.000    1.000    2.490    2.520    2.548    2.575    2.600

 PERFORMANCE PARAMETERS

 Ae/At                      1.0000   3.4204   3.5483   3.6744   3.7991   3.9222
 CSTAR, M/SEC               1567.5   1567.5   1567.5   1567.5   1567.5   1567.5
 CF                         0.6657   1.3937   1.4034   1.4125   1.4210   1.4290
 Ivac, M/SEC                1938.3   2469.2   2479.5   2489.2   2498.3   2506.9
 Isp, M/SEC                 1043.4   2184.6   2199.8   2214.1   2227.4   2239.9


 MOLE FRACTIONS

 *CO              0.13193  0.12725  0.11093  0.11044  0.10996  0.10950  0.10905
 *CO2             0.07578  0.08226  0.10109  0.10159  0.10207  0.10253  0.10298
 *H               0.01093  0.00743  0.00023  0.00021  0.00018  0.00016  0.00015
 HO2              0.00001  0.00000  0.00000  0.00000  0.00000  0.00000  0.00000
 *H2              0.05945  0.05817  0.06954  0.07004  0.07052  0.07099  0.07144
 H2O              0.25233  0.26139  0.26260  0.26213  0.26167  0.26122  0.26078
 *NO              0.00417  0.00221  0.00000  0.00000  0.00000  0.00000  0.00000
 *N2              0.44419  0.44903  0.45552  0.45553  0.45554  0.45555  0.45555
 *O               0.00172  0.00075  0.00000  0.00000  0.00000  0.00000  0.00000
 *OH              0.01661  0.01018  0.00008  0.00007  0.00006  0.00005  0.00004
 *O2              0.00289  0.00134  0.00000  0.00000  0.00000  0.00000  0.00000

  * THERMODYNAMIC PROPERTIES FITTED TO 20000.K

    PRODUCTS WHICH WERE CONSIDERED BUT WHOSE MOLE FRACTIONS
    WERE LESS THAN 5.000000E-06 FOR ALL ASSIGNED CONDITIONS

 *C              *CH             CH2             CH3             CH2OH          
 CH3O            CH4             CH3OH           CH3OOH          *CN            
 CNN             COOH            *C2             C2H             C2H2,acetylene 
 C2H2,vinylidene CH2CO,ketene    O(CH)2O         HO(CO)2OH       C2H3,vinyl     
 CH3CN           CH3CO,acetyl    C2H4            C2H4O,ethylen-o CH3CHO,ethanal 
 CH3COOH         OHCH2COOH       C2H5            C2H6            CH3N2CH3       
 C2H5OH          CH3OCH3         CH3O2CH3        CCN             CNC            
 OCCN            C2N2            C2O             *C3             C3H3,1-propynl 
 C3H3,2-propynl  C3H4,allene     C3H4,propyne    C3H4,cyclo-     C3H5,allyl     
 C3H6,propylene  C3H6,cyclo-     C3H6O,propylox  C3H6O,acetone   C3H6O,propanal 
 C3H7,n-propyl   C3H7,i-propyl   C3H8            C3H8O,1propanol C3H8O,2propanol
 CNCOCN          C3O2            *C4             C4H2,butadiyne  C4H4,1,3-cyclo-
 C4H6,butadiene  C4H6,1butyne    C4H6,2butyne    C4H6,cyclo-     C4H8,1-butene  
 C4H8,cis2-buten C4H8,tr2-butene C4H8,isobutene  C4H8,cyclo-     (CH3COOH)2     
 C4H9,n-butyl    C4H9,i-butyl    C4H9,s-butyl    C4H9,t-butyl    C4H10,n-butane 
 C4H10,isobutane C4N2            *C5             C5H6,1,3cyclo-  C5H8,cyclo-    
 C5H10,1-pentene C5H10,cyclo-    C5H11,pentyl    C5H11,t-pentyl  C5H12,n-pentane
 C5H12,i-pentane CH3C(CH3)2CH3   C6H2            C6H5,phenyl     C6H5O,phenoxy  
 C6H6            C6H5OH,phenol   C6H10,cyclo-    C6H12,1-hexene  C6H12,cyclo-   
 C6H13,n-hexyl   C6H14,n-hexane  C7H7,benzyl     C7H8            C7H8O,cresol-mx
 C7H14,1-heptene C7H15,n-heptyl  C7H16,n-heptane C7H16,2-methylh C8H8,styrene   
 C8H10,ethylbenz C8H16,1-octene  C8H17,n-octyl   C8H18,n-octane  C8H18,isooctane
 C9H19,n-nonyl   C10H8,naphthale C10H21,n-decyl  C12H9,o-bipheny C12H10,biphenyl
 HCN             HCO             HCCN            HCCO            HNC            
 HNCO            HNO             HNO2            HNO3            HCHO,formaldehy
 HCOOH           H2O2            (HCOOH)2        *N              NCO            
 *NH             NH2             NH3             NH2OH           NO2            
 NO3             NCN             N2H2            NH2NO2          N2H4           
 N2O             N2O3            N2O4            N2O5            N3             
 N3H             O3              C(gr)           H2O(cr)         H2O(L)         

 NOTE. WEIGHT FRACTION OF FUEL IN TOTAL FUELS AND OF OXIDANT IN TOTAL OXIDANTS






 POINT ITN      T            C           H           O           N 

   1    2    2999.394     -16.250     -10.552     -16.801     -13.314

 Pinf/Pt = 1.744621
   2    4    2800.306     -16.373     -10.720     -17.330     -13.460

 Pinf/Pt = 1.752303
   2    2    2798.706     -16.374     -10.721     -17.335     -13.461

 Pinf/Pt = 1.752386
   2    1    2798.689     -16.374     -10.721     -17.335     -13.461

   3    5    2033.747     -15.510     -11.106     -20.923     -13.875

   4    3    2003.340     -15.433     -11.118     -21.133     -13.890

   5    3    1975.449     -15.359     -11.128     -21.332     -13.903

   6    3    1949.721     -15.288     -11.137     -21.522     -13.916

   7    3    1925.868     -15.220     -11.146     -21.702     -13.927

   8    3    1903.655     -15.154     -11.154     -21.874     -13.938






              THEORETICAL ROCKET PERFORMANCE ASSUMING EQUILIBRIUM

           COMPOSITION DURING EXPANSION FROM INFINITE AREA COMBUSTOR

 Pin =   188.5 PSIA
 CASE = ethanol-95-n2o 

             REACTANT                    WT FRACTION      ENERGY      TEMP
                                          (SEE NOTE)     KJ/KG-MOL      K  
 FUEL        C2H5OH(L)                    0.9500000   -277526.835    298.000
 FUEL        H2O(L)                       0.0500000   -285841.390    298.000
 OXIDANT     N2O                          1.0000000     81594.206    298.000

 O/F=    3.90000  %FUEL= 20.408163  R,EQ.RATIO= 1.313536  PHI,EQ.RATIO= 1.396323

                 CHAMBER   THROAT     EXIT     EXIT     EXIT     EXIT     EXIT     EXIT
 Pinf/P            1.0000   1.7524   12.560   13.607   14.653   15.700   16.747   17.793
 P, BAR            13.000   7.4185   1.0350  0.95541  0.88716  0.82802  0.77627  0.73061
 T, K             2999.39  2798.69  2033.75  2003.34  1975.45  1949.72  1925.87  1903.66
 RHO, KG/CU M    1.2870 0 7.9381-1 1.5415-1 1.4446-1 1.3604-1 1.2865-1 1.2211-1 1.1627-1
 H, KJ/KG          145.67  -399.72 -1979.53 -2032.87 -2081.54 -2126.24 -2167.52 -2205.84
 U, KJ/KG         -864.42 -1334.25 -2650.98 -2694.24 -2733.67 -2769.84 -2803.23 -2834.20
 G, KJ/KG        -31940.3 -30338.7 -23735.5 -23463.6 -23213.9 -22983.4 -22769.5 -22570.2
 S, KJ/(KG)(K)    10.6975  10.6975  10.6975  10.6975  10.6975  10.6975  10.6975  10.6975

 M, (1/n)          24.689   24.900   25.184   25.185   25.187   25.188   25.189   25.189
 (dLV/dLP)t      -1.01102 -1.00651 -1.00020 -1.00017 -1.00014 -1.00012 -1.00010 -1.00009
 (dLV/dLT)p        1.2377   1.1505   1.0059   1.0049   1.0042   1.0036   1.0031   1.0027
 Cp, KJ/(KG)(K)    3.5354   2.9516   1.7696   1.7579   1.7482   1.7400   1.7330   1.7269
 GAMMAs            1.1559   1.1672   1.2324   1.2338   1.2350   1.2360   1.2369   1.2377
 SON VEL,M/SEC     1080.5   1044.4    909.7    903.3    897.4    891.9    886.8    881.9
 MACH NUMBER        0.000    1.000    2.266    2.311    2.352    2.390    2.426    2.459

 PERFORMANCE PARAMETERS

 Ae/At                      1.0000   2.6088   2.7494   2.8875   3.0231   3.1565   3.2879
 CSTAR, M/SEC               1568.0   1568.0   1568.0   1568.0   1568.0   1568.0   1568.0
 CF                         0.6660   1.3148   1.3312   1.3460   1.3594   1.3717   1.3830
 Ivac, M/SEC                1939.2   2387.3   2404.2   2419.5   2433.6   2446.5   2458.4
 Isp, M/SEC                 1044.4   2061.6   2087.4   2110.5   2131.6   2150.9   2168.6


 MOLE FRACTIONS

 *CO              0.13185  0.12719  0.11428  0.11366  0.11307  0.11250  0.11195  0.11142
 *CO2             0.07596  0.08238  0.09769  0.09832  0.09893  0.09951  0.10006  0.10059
 *H               0.01066  0.00722  0.00052  0.00044  0.00038  0.00033  0.00029  0.00025
 HO2              0.00001  0.00000  0.00000  0.00000  0.00000  0.00000  0.00000  0.00000
 *H2              0.05931  0.05808  0.06610  0.06674  0.06735  0.06794  0.06850  0.06904
 H2O              0.25287  0.26181  0.26574  0.26518  0.26464  0.26411  0.26359  0.26309
 *NO              0.00413  0.00217  0.00002  0.00002  0.00001  0.00001  0.00001  0.00001
 *N2              0.44441  0.44920  0.45541  0.45544  0.45546  0.45548  0.45550  0.45551
 *O               0.00165  0.00071  0.00000  0.00000  0.00000  0.00000  0.00000  0.00000
 *OH              0.01635  0.00996  0.00025  0.00020  0.00016  0.00013  0.00011  0.00009
 *O2              0.00279  0.00128  0.00000  0.00000  0.00000  0.00000  0.00000  0.00000

  * THERMODYNAMIC PROPERTIES FITTED TO 20000.K

    PRODUCTS WHICH WERE CONSIDERED BUT WHOSE MOLE FRACTIONS
    WERE LESS THAN 5.000000E-06 FOR ALL ASSIGNED CONDITIONS

 *C              *CH             CH2             CH3             CH2OH          
 CH3O            CH4             CH3OH           CH3OOH          *CN            
 CNN             COOH            *C2             C2H             C2H2,acetylene 
 C2H2,vinylidene CH2CO,ketene    O(CH)2O         HO(CO)2OH       C2H3,vinyl     
 CH3CN           CH3CO,acetyl    C2H4            C2H4O,ethylen-o CH3CHO,ethanal 
 CH3COOH         OHCH2COOH       C2H5            C2H6            CH3N2CH3       
 C2H5OH          CH3OCH3         CH3O2CH3        CCN             CNC            
 OCCN            C2N2            C2O             *C3             C3H3,1-propynl 
 C3H3,2-propynl  C3H4,allene     C3H4,propyne    C3H4,cyclo-     C3H5,allyl     
 C3H6,propylene  C3H6,cyclo-     C3H6O,propylox  C3H6O,acetone   C3H6O,propanal 
 C3H7,n-propyl   C3H7,i-propyl   C3H8            C3H8O,1propanol C3H8O,2propanol
 CNCOCN          C3O2            *C4             C4H2,butadiyne  C4H4,1,3-cyclo-
 C4H6,butadiene  C4H6,1butyne    C4H6,2butyne    C4H6,cyclo-     C4H8,1-butene  
 C4H8,cis2-buten C4H8,tr2-butene C4H8,isobutene  C4H8,cyclo-     (CH3COOH)2     
 C4H9,n-butyl    C4H9,i-butyl    C4H9,s-butyl    C4H9,t-butyl    C4H10,n-butane 
 C4H10,isobutane C4N2            *C5             C5H6,1,3cyclo-  C5H8,cyclo-    
 C5H10,1-pentene C5H10,cyclo-    C5H11,pentyl    C5H11,t-pentyl  C5H12,n-pentane
 C5H12,i-pentane CH3C(CH3)2CH3   C6H2            C6H5,phenyl     C6H5O,phenoxy  
 C6H6            C6H5OH,phenol   C6H10,cyclo-    C6H12,1-hexene  C6H12,cyclo-   
 C6H13,n-hexyl   C6H14,n-hexane  C7H7,benzyl     C7H8            C7H8O,cresol-mx
 C7H14,1-heptene C7H15,n-heptyl  C7H16,n-heptane C7H16,2-methylh C8H8,styrene   
 C8H10,ethylbenz C8H16,1-octene  C8H17,n-octyl   C8H18,n-octane  C8H18,isooctane
 C9H19,n-nonyl   C10H8,naphthale C10H21,n-decyl  C12H9,o-bipheny C12H10,biphenyl
 HCN             HCO             HCCN            HCCO            HNC            
 HNCO            HNO             HNO2            HNO3            HCHO,formaldehy
 HCOOH           H2O2            (HCOOH)2        *N              NCO            
 *NH             NH2             NH3             NH2OH           NO2            
 NO3             NCN             N2H2            NH2NO2          N2H4           
 N2O             N2O3            N2O4            N2O5            N3             
 N3H             O3              C(gr)           H2O(cr)         H2O(L)         

 NOTE. WEIGHT FRACTION OF FUEL IN TOTAL FUELS AND OF OXIDANT IN TOTAL OXIDANTS





   3    3    1882.887     -15.091     -11.162     -22.040     -13.949

   4    3    1863.402     -15.030     -11.169     -22.198     -13.958

   5    3    1845.061     -14.971     -11.176     -22.351     -13.968

   6    3    1827.748     -14.914     -11.182     -22.498     -13.976

   7    2    1811.361     -14.858     -11.188     -22.640     -13.985






              THEORETICAL ROCKET PERFORMANCE ASSUMING EQUILIBRIUM

           COMPOSITION DURING EXPANSION FROM INFINITE AREA COMBUSTOR

 Pin =   188.5 PSIA
 CASE = ethanol-95-n2o 

             REACTANT                    WT FRACTION      ENERGY      TEMP
                                          (SEE NOTE)     KJ/KG-MOL      K  
 FUEL        C2H5OH(L)                    0.9500000   -277526.835    298.000
 FUEL        H2O(L)                       0.0500000   -285841.390    298.000
 OXIDANT     N2O                          1.0000000     81594.206    298.000

 O/F=    3.90000  %FUEL= 20.408163  R,EQ.RATIO= 1.313536  PHI,EQ.RATIO= 1.396323

                 CHAMBER   THROAT     EXIT     EXIT     EXIT     EXIT     EXIT
 Pinf/P            1.0000   1.7524   18.840   19.887   20.933   21.980   23.027
 P, BAR            13.000   7.4185  0.69002  0.65370  0.62102  0.59144  0.56456
 T, K             2999.39  2798.69  1882.89  1863.40  1845.06  1827.75  1811.36
 RHO, KG/CU M    1.2870 0 7.9381-1 1.1103-1 1.0628-1 1.0198-1 9.8041-2 9.4432-2
 H, KJ/KG          145.67  -399.72 -2241.56 -2274.98 -2306.38 -2335.95 -2363.89
 U, KJ/KG         -864.42 -1334.25 -2863.05 -2890.03 -2915.36 -2939.21 -2961.73
 G, KJ/KG        -31940.3 -30338.7 -22383.7 -22208.7 -22043.9 -21888.3 -21740.9
 S, KJ/(KG)(K)    10.6975  10.6975  10.6975  10.6975  10.6975  10.6975  10.6975

 M, (1/n)          24.689   24.900   25.190   25.190   25.191   25.191   25.191
 (dLV/dLP)t      -1.01102 -1.00651 -1.00008 -1.00007 -1.00006 -1.00005 -1.00005
 (dLV/dLT)p        1.2377   1.1505   1.0023   1.0021   1.0018   1.0016   1.0014
 Cp, KJ/(KG)(K)    3.5354   2.9516   1.7217   1.7170   1.7129   1.7092   1.7059
 GAMMAs            1.1559   1.1672   1.2385   1.2391   1.2397   1.2402   1.2407
 SON VEL,M/SEC     1080.5   1044.4    877.3    873.0    868.9    865.0    861.2
 MACH NUMBER        0.000    1.000    2.491    2.520    2.549    2.576    2.601

 PERFORMANCE PARAMETERS

 Ae/At                      1.0000   3.4174   3.5451   3.6712   3.7957   3.9188
 CSTAR, M/SEC               1568.0   1568.0   1568.0   1568.0   1568.0   1568.0
 CF                         0.6660   1.3935   1.4032   1.4123   1.4208   1.4287
 Ivac, M/SEC                1939.2   2469.5   2479.8   2489.5   2498.6   2507.2
 Isp, M/SEC                 1044.4   2185.0   2200.3   2214.5   2227.8   2240.3


 MOLE FRACTIONS

 *CO              0.13185  0.12719  0.11091  0.11042  0.10995  0.10949  0.10904
 *CO2             0.07596  0.08238  0.10111  0.10160  0.10208  0.10254  0.10300
 *H               0.01066  0.00722  0.00022  0.00020  0.00017  0.00016  0.00014
 HO2              0.00001  0.00000  0.00000  0.00000  0.00000  0.00000  0.00000
 *H2              0.05931  0.05808  0.06955  0.07005  0.07054  0.07101  0.07146
 H2O              0.25287  0.26181  0.26260  0.26212  0.26166  0.26121  0.26077
 *NO              0.00413  0.00217  0.00000  0.00000  0.00000  0.00000  0.00000
 *N2              0.44441  0.44920  0.45553  0.45553  0.45554  0.45555  0.45555
 *O               0.00165  0.00071  0.00000  0.00000  0.00000  0.00000  0.00000
 *OH              0.01635  0.00996  0.00008  0.00006  0.00005  0.00005  0.00004
 *O2              0.00279  0.00128  0.00000  0.00000  0.00000  0.00000  0.00000

  * THERMODYNAMIC PROPERTIES FITTED TO 20000.K

    PRODUCTS WHICH WERE CONSIDERED BUT WHOSE MOLE FRACTIONS
    WERE LESS THAN 5.000000E-06 FOR ALL ASSIGNED CONDITIONS

 *C              *CH             CH2             CH3             CH2OH          
 CH3O            CH4             CH3OH           CH3OOH          *CN            
 CNN             COOH            *C2             C2H             C2H2,acetylene 
 C2H2,vinylidene CH2CO,ketene    O(CH)2O         HO(CO)2OH       C2H3,vinyl     
 CH3CN           CH3CO,acetyl    C2H4            C2H4O,ethylen-o CH3CHO,ethanal 
 CH3COOH         OHCH2COOH       C2H5            C2H6            CH3N2CH3       
 C2H5OH          CH3OCH3         CH3O2CH3        CCN             CNC            
 OCCN            C2N2            C2O             *C3             C3H3,1-propynl 
 C3H3,2-propynl  C3H4,allene     C3H4,propyne    C3H4,cyclo-     C3H5,allyl     
 C3H6,propylene  C3H6,cyclo-     C3H6O,propylox  C3H6O,acetone   C3H6O,propanal 
 C3H7,n-propyl   C3H7,i-propyl   C3H8            C3H8O,1propanol C3H8O,2propanol
 CNCOCN          C3O2            *C4             C4H2,butadiyne  C4H4,1,3-cyclo-
 C4H6,butadiene  C4H6,1butyne    C4H6,2butyne    C4H6,cyclo-     C4H8,1-butene  
 C4H8,cis2-buten C4H8,tr2-butene C4H8,isobutene  C4H8,cyclo-     (CH3COOH)2     
 C4H9,n-butyl    C4H9,i-butyl    C4H9,s-butyl    C4H9,t-butyl    C4H10,n-butane 
 C4H10,isobutane C4N2            *C5             C5H6,1,3cyclo-  C5H8,cyclo-    
 C5H10,1-pentene C5H10,cyclo-    C5H11,pentyl    C5H11,t-pentyl  C5H12,n-pentane
 C5H12,i-pentane CH3C(CH3)2CH3   C6H2            C6H5,phenyl     C6H5O,phenoxy  
 C6H6            C6H5OH,phenol   C6H10,cyclo-    C6H12,1-hexene  C6H12,cyclo-   
 C6H13,n-hexyl   C6H14,n-hexane  C7H7,benzyl     C7H8            C7H8O,cresol-mx
 C7H14,1-heptene C7H15,n-heptyl  C7H16,n-heptane C7H16,2-methylh C8H8,styrene   
 C8H10,ethylbenz C8H16,1-octene  C8H17,n-octyl   C8H18,n-octane  C8H18,isooctane
 C9H19,n-nonyl   C10H8,naphthale C10H21,n-decyl  C12H9,o-bipheny C12H10,biphenyl
 HCN             HCO             HCCN            HCCO            HNC            
 HNCO            HNO             HNO2            HNO3            HCHO,formaldehy
 HCOOH           H2O2            (HCOOH)2        *N              NCO            
 *NH             NH2             NH3             NH2OH           NO2            
 NO3             NCN             N2H2            NH2NO2          N2H4           
 N2O             N2O3            N2O4            N2O5            N3             
 N3H             O3              C(gr)           H2O(cr)         H2O(L)         

 NOTE. WEIGHT FRACTION OF FUEL IN TOTAL FUELS AND OF OXIDANT IN TOTAL OXIDANTS






 POINT ITN      T            C           H           O           N 

   1    2    3004.404     -16.193     -10.519     -16.784     -13.280

 Pinf/Pt = 1.745110
   2    4    2803.521     -16.312     -10.685     -17.317     -13.425

 Pinf/Pt = 1.752931
   2    2    2801.879     -16.312     -10.687     -17.322     -13.426

 Pinf/Pt = 1.753015
   2    1    2801.861     -16.312     -10.687     -17.322     -13.426

   3    5    2033.351     -15.434     -11.069     -20.925     -13.838

   4    3    2002.920     -15.357     -11.080     -21.136     -13.852

   5    3    1975.011     -15.282     -11.090     -21.336     -13.866

   6    3    1949.269     -15.211     -11.100     -21.525     -13.878

   7    3    1925.406     -15.143     -11.108     -21.706     -13.890

   8    3    1903.186     -15.077     -11.117     -21.878     -13.901






              THEORETICAL ROCKET PERFORMANCE ASSUMING EQUILIBRIUM

           COMPOSITION DURING EXPANSION FROM INFINITE AREA COMBUSTOR

 Pin =   203.1 PSIA
 CASE = ethanol-95-n2o 

             REACTANT                    WT FRACTION      ENERGY      TEMP
                                          (SEE NOTE)     KJ/KG-MOL      K  
 FUEL        C2H5OH(L)                    0.9500000   -277526.835    298.000
 FUEL        H2O(L)                       0.0500000   -285841.390    298.000
 OXIDANT     N2O                          1.0000000     81594.206    298.000

 O/F=    3.90000  %FUEL= 20.408163  R,EQ.RATIO= 1.313536  PHI,EQ.RATIO= 1.396323

                 CHAMBER   THROAT     EXIT     EXIT     EXIT     EXIT     EXIT     EXIT
 Pinf/P            1.0000   1.7530   12.560   13.607   14.653   15.700   16.747   17.793
 P, BAR            14.000   7.9862   1.1146   1.0289  0.95541  0.89171  0.83598  0.78681
 T, K             3004.40  2801.86  2033.35  2002.92  1975.01  1949.27  1925.41  1903.19
 RHO, KG/CU M    1.3843 0 8.5386-1 1.6604-1 1.5561-1 1.4654-1 1.3858-1 1.3154-1 1.2525-1
 H, KJ/KG          145.67  -400.64 -1980.52 -2033.84 -2082.50 -2127.19 -2168.46 -2206.77
 U, KJ/KG         -865.69 -1335.95 -2651.83 -2695.06 -2734.48 -2770.64 -2804.02 -2834.97
 G, KJ/KG        -31918.9 -30303.6 -23681.5 -23410.1 -23160.9 -22930.8 -22717.4 -22518.6
 S, KJ/(KG)(K)    10.6725  10.6725  10.6725  10.6725  10.6725  10.6725  10.6725  10.6725

 M, (1/n)          24.700   24.907   25.184   25.186   25.187   25.188   25.189   25.189
 (dLV/dLP)t      -1.01080 -1.00633 -1.00019 -1.00016 -1.00013 -1.00011 -1.00010 -1.00008
 (dLV/dLT)p        1.2326   1.1463   1.0056   1.0047   1.0040   1.0034   1.0030   1.0026
 Cp, KJ/(KG)(K)    3.4960   2.9185   1.7673   1.7559   1.7465   1.7385   1.7317   1.7258
 GAMMAs            1.1567   1.1682   1.2326   1.2340   1.2352   1.2362   1.2371   1.2379
 SON VEL,M/SEC     1081.6   1045.3    909.7    903.3    897.4    891.9    886.7    881.8
 MACH NUMBER        0.000    1.000    2.267    2.311    2.352    2.391    2.426    2.460

 PERFORMANCE PARAMETERS

 Ae/At                      1.0000   2.6067   2.7473   2.8852   3.0207   3.1540   3.2853
 CSTAR, M/SEC               1568.6   1568.6   1568.6   1568.6   1568.6   1568.6   1568.6
 CF                         0.6664   1.3146   1.3310   1.3458   1.3592   1.3715   1.3828
 Ivac, M/SEC                1940.1   2387.7   2404.5   2419.8   2433.9   2446.8   2458.7
 Isp, M/SEC                 1045.3   2062.1   2087.8   2111.0   2132.1   2151.3   2169.1


 MOLE FRACTIONS

 *CO              0.13177  0.12714  0.11428  0.11365  0.11306  0.11249  0.11194  0.11141
 *CO2             0.07612  0.08250  0.09770  0.09833  0.09894  0.09952  0.10007  0.10061
 *H               0.01042  0.00703  0.00050  0.00042  0.00036  0.00032  0.00027  0.00024
 HO2              0.00001  0.00000  0.00000  0.00000  0.00000  0.00000  0.00000  0.00000
 *H2              0.05919  0.05799  0.06611  0.06675  0.06737  0.06795  0.06851  0.06905
 H2O              0.25338  0.26219  0.26574  0.26518  0.26464  0.26410  0.26359  0.26308
 *NO              0.00409  0.00213  0.00002  0.00001  0.00001  0.00001  0.00001  0.00001
 *N2              0.44462  0.44935  0.45541  0.45545  0.45547  0.45549  0.45551  0.45552
 *O               0.00160  0.00068  0.00000  0.00000  0.00000  0.00000  0.00000  0.00000
 *OH              0.01611  0.00975  0.00024  0.00019  0.00015  0.00013  0.00010  0.00009
 *O2              0.00270  0.00123  0.00000  0.00000  0.00000  0.00000  0.00000  0.00000

  * THERMODYNAMIC PROPERTIES FITTED TO 20000.K

    PRODUCTS WHICH WERE CONSIDERED BUT WHOSE MOLE FRACTIONS
    WERE LESS THAN 5.000000E-06 FOR ALL ASSIGNED CONDITIONS

 *C              *CH             CH2             CH3             CH2OH          
 CH3O            CH4             CH3OH           CH3OOH          *CN            
 CNN             COOH            *C2             C2H             C2H2,acetylene 
 C2H2,vinylidene CH2CO,ketene    O(CH)2O         HO(CO)2OH       C2H3,vinyl     
 CH3CN           CH3CO,acetyl    C2H4            C2H4O,ethylen-o CH3CHO,ethanal 
 CH3COOH         OHCH2COOH       C2H5            C2H6            CH3N2CH3       
 C2H5OH          CH3OCH3         CH3O2CH3        CCN             CNC            
 OCCN            C2N2            C2O             *C3             C3H3,1-propynl 
 C3H3,2-propynl  C3H4,allene     C3H4,propyne    C3H4,cyclo-     C3H5,allyl     
 C3H6,propylene  C3H6,cyclo-     C3H6O,propylox  C3H6O,acetone   C3H6O,propanal 
 C3H7,n-propyl   C3H7,i-propyl   C3H8            C3H8O,1propanol C3H8O,2propanol
 CNCOCN          C3O2            *C4             C4H2,butadiyne  C4H4,1,3-cyclo-
 C4H6,butadiene  C4H6,1butyne    C4H6,2butyne    C4H6,cyclo-     C4H8,1-butene  
 C4H8,cis2-buten C4H8,tr2-butene C4H8,isobutene  C4H8,cyclo-     (CH3COOH)2     
 C4H9,n-butyl    C4H9,i-butyl    C4H9,s-butyl    C4H9,t-butyl    C4H10,n-butane 
 C4H10,isobutane C4N2            *C5             C5H6,1,3cyclo-  C5H8,cyclo-    
 C5H10,1-pentene C5H10,cyclo-    C5H11,pentyl    C5H11,t-pentyl  C5H12,n-pentane
 C5H12,i-pentane CH3C(CH3)2CH3   C6H2            C6H5,phenyl     C6H5O,phenoxy  
 C6H6            C6H5OH,phenol   C6H10,cyclo-    C6H12,1-hexene  C6H12,cyclo-   
 C6H13,n-hexyl   C6H14,n-hexane  C7H7,benzyl     C7H8            C7H8O,cresol-mx
 C7H14,1-heptene C7H15,n-heptyl  C7H16,n-heptane C7H16,2-methylh C8H8,styrene   
 C8H10,ethylbenz C8H16,1-octene  C8H17,n-octyl   C8H18,n-octane  C8H18,isooctane
 C9H19,n-nonyl   C10H8,naphthale C10H21,n-decyl  C12H9,o-bipheny C12H10,biphenyl
 HCN             HCO             HCCN            HCCO            HNC            
 HNCO            HNO             HNO2            HNO3            HCHO,formaldehy
 HCOOH           H2O2            (HCOOH)2        *N              NCO            
 *NH             NH2             NH3             NH2OH           NO2            
 NO3             NCN             N2H2            NH2NO2          N2H4           
 N2O             N2O3            N2O4            N2O5            N3             
 N3H             O3              C(gr)           H2O(cr)         H2O(L)         

 NOTE. WEIGHT FRACTION OF FUEL IN TOTAL FUELS AND OF OXIDANT IN TOTAL OXIDANTS





   3    3    1882.412     -15.014     -11.124     -22.043     -13.911

   4    3    1862.923     -14.953     -11.131     -22.202     -13.921

   5    3    1844.579     -14.894     -11.138     -22.355     -13.930

   6    3    1827.263     -14.837     -11.145     -22.502     -13.939

   7    2    1810.876     -14.781     -11.151     -22.644     -13.947






              THEORETICAL ROCKET PERFORMANCE ASSUMING EQUILIBRIUM

           COMPOSITION DURING EXPANSION FROM INFINITE AREA COMBUSTOR

 Pin =   203.1 PSIA
 CASE = ethanol-95-n2o 

             REACTANT                    WT FRACTION      ENERGY      TEMP
                                          (SEE NOTE)     KJ/KG-MOL      K  
 FUEL        C2H5OH(L)                    0.9500000   -277526.835    298.000
 FUEL        H2O(L)                       0.0500000   -285841.390    298.000
 OXIDANT     N2O                          1.0000000     81594.206    298.000

 O/F=    3.90000  %FUEL= 20.408163  R,EQ.RATIO= 1.313536  PHI,EQ.RATIO= 1.396323

                 CHAMBER   THROAT     EXIT     EXIT     EXIT     EXIT     EXIT
 Pinf/P            1.0000   1.7530   18.840   19.887   20.933   21.980   23.027
 P, BAR            14.000   7.9862  0.74310  0.70399  0.66879  0.63694  0.60799
 T, K             3004.40  2801.86  1882.41  1862.92  1844.58  1827.26  1810.88
 RHO, KG/CU M    1.3843 0 8.5386-1 1.1960-1 1.1449-1 1.0985-1 1.0561-1 1.0172-1
 H, KJ/KG          145.67  -400.64 -2242.48 -2275.90 -2307.28 -2336.85 -2364.78
 U, KJ/KG         -865.69 -1335.95 -2863.81 -2890.79 -2916.11 -2939.95 -2962.46
 G, KJ/KG        -31918.9 -30303.6 -22332.6 -22158.0 -21993.6 -21838.4 -21691.4
 S, KJ/(KG)(K)    10.6725  10.6725  10.6725  10.6725  10.6725  10.6725  10.6725

 M, (1/n)          24.700   24.907   25.190   25.190   25.191   25.191   25.191
 (dLV/dLP)t      -1.01080 -1.00633 -1.00007 -1.00006 -1.00006 -1.00005 -1.00004
 (dLV/dLT)p        1.2326   1.1463   1.0022   1.0020   1.0017   1.0016   1.0014
 Cp, KJ/(KG)(K)    3.4960   2.9185   1.7206   1.7161   1.7121   1.7085   1.7052
 GAMMAs            1.1567   1.1682   1.2386   1.2392   1.2398   1.2403   1.2408
 SON VEL,M/SEC     1081.6   1045.3    877.2    872.9    868.8    864.9    861.2
 MACH NUMBER        0.000    1.000    2.491    2.521    2.549    2.576    2.602

 PERFORMANCE PARAMETERS

 Ae/At                      1.0000   3.4147   3.5423   3.6683   3.7927   3.9157
 CSTAR, M/SEC               1568.6   1568.6   1568.6   1568.6   1568.6   1568.6
 CF                         0.6664   1.3933   1.4030   1.4121   1.4205   1.4285
 Ivac, M/SEC                1940.1   2469.8   2480.1   2489.8   2498.9   2507.5
 Isp, M/SEC                 1045.3   2185.5   2200.7   2214.9   2228.2   2240.7


 MOLE FRACTIONS

 *CO              0.13177  0.12714  0.11090  0.11041  0.10994  0.10947  0.10903
 *CO2             0.07612  0.08250  0.10112  0.10161  0.10209  0.10256  0.10301
 *H               0.01042  0.00703  0.00021  0.00019  0.00017  0.00015  0.00013
 HO2              0.00001  0.00000  0.00000  0.00000  0.00000  0.00000  0.00000
 *H2              0.05919  0.05799  0.06957  0.07007  0.07055  0.07102  0.07147
 H2O              0.25338  0.26219  0.26259  0.26211  0.26165  0.26120  0.26076
 *NO              0.00409  0.00213  0.00000  0.00000  0.00000  0.00000  0.00000
 *N2              0.44462  0.44935  0.45553  0.45554  0.45554  0.45555  0.45556
 *O               0.00160  0.00068  0.00000  0.00000  0.00000  0.00000  0.00000
 *OH              0.01611  0.00975  0.00007  0.00006  0.00005  0.00004  0.00004
 *O2              0.00270  0.00123  0.00000  0.00000  0.00000  0.00000  0.00000

  * THERMODYNAMIC PROPERTIES FITTED TO 20000.K

    PRODUCTS WHICH WERE CONSIDERED BUT WHOSE MOLE FRACTIONS
    WERE LESS THAN 5.000000E-06 FOR ALL ASSIGNED CONDITIONS

 *C              *CH             CH2             CH3             CH2OH          
 CH3O            CH4             CH3OH           CH3OOH          *CN            
 CNN             COOH            *C2             C2H             C2H2,acetylene 
 C2H2,vinylidene CH2CO,ketene    O(CH)2O         HO(CO)2OH       C2H3,vinyl     
 CH3CN           CH3CO,acetyl    C2H4            C2H4O,ethylen-o CH3CHO,ethanal 
 CH3COOH         OHCH2COOH       C2H5            C2H6            CH3N2CH3       
 C2H5OH          CH3OCH3         CH3O2CH3        CCN             CNC            
 OCCN            C2N2            C2O             *C3             C3H3,1-propynl 
 C3H3,2-propynl  C3H4,allene     C3H4,propyne    C3H4,cyclo-     C3H5,allyl     
 C3H6,propylene  C3H6,cyclo-     C3H6O,propylox  C3H6O,acetone   C3H6O,propanal 
 C3H7,n-propyl   C3H7,i-propyl   C3H8            C3H8O,1propanol C3H8O,2propanol
 CNCOCN          C3O2            *C4             C4H2,butadiyne  C4H4,1,3-cyclo-
 C4H6,butadiene  C4H6,1butyne    C4H6,2butyne    C4H6,cyclo-     C4H8,1-butene  
 C4H8,cis2-buten C4H8,tr2-butene C4H8,isobutene  C4H8,cyclo-     (CH3COOH)2     
 C4H9,n-butyl    C4H9,i-butyl    C4H9,s-butyl    C4H9,t-butyl    C4H10,n-butane 
 C4H10,isobutane C4N2            *C5             C5H6,1,3cyclo-  C5H8,cyclo-    
 C5H10,1-pentene C5H10,cyclo-    C5H11,pentyl    C5H11,t-pentyl  C5H12,n-pentane
 C5H12,i-pentane CH3C(CH3)2CH3   C6H2            C6H5,phenyl     C6H5O,phenoxy  
 C6H6            C6H5OH,phenol   C6H10,cyclo-    C6H12,1-hexene  C6H12,cyclo-   
 C6H13,n-hexyl   C6H14,n-hexane  C7H7,benzyl     C7H8            C7H8O,cresol-mx
 C7H14,1-heptene C7H15,n-heptyl  C7H16,n-heptane C7H16,2-methylh C8H8,styrene   
 C8H10,ethylbenz C8H16,1-octene  C8H17,n-octyl   C8H18,n-octane  C8H18,isooctane
 C9H19,n-nonyl   C10H8,naphthale C10H21,n-decyl  C12H9,o-bipheny C12H10,biphenyl
 HCN             HCO             HCCN            HCCO            HNC            
 HNCO            HNO             HNO2            HNO3            HCHO,formaldehy
 HCOOH           H2O2            (HCOOH)2        *N              NCO            
 *NH             NH2             NH3             NH2OH           NO2            
 NO3             NCN             N2H2            NH2NO2          N2H4           
 N2O             N2O3            N2O4            N2O5            N3             
 N3H             O3              C(gr)           H2O(cr)         H2O(L)         

 NOTE. WEIGHT FRACTION OF FUEL IN TOTAL FUELS AND OF OXIDANT IN TOTAL OXIDANTS






 POINT ITN      T            C           H           O           N 

   1    2    3009.025     -16.140     -10.488     -16.767     -13.248

 Pinf/Pt = 1.745569
   2    4    2806.463     -16.254     -10.653     -17.305     -13.393

 Pinf/Pt = 1.753516
   2    2    2804.781     -16.254     -10.655     -17.310     -13.394

 Pinf/Pt = 1.753603
   2    1    2804.763     -16.254     -10.655     -17.310     -13.394

   3    5    2032.987     -15.363     -11.034     -20.928     -13.803

   4    3    2002.534     -15.285     -11.045     -21.139     -13.817

   5    3    1974.609     -15.211     -11.055     -21.338     -13.831

   6    3    1948.855     -15.140     -11.065     -21.528     -13.843

   7    3    1924.983     -15.072     -11.073     -21.709     -13.855

   8    3    1902.756     -15.006     -11.082     -21.882     -13.866






              THEORETICAL ROCKET PERFORMANCE ASSUMING EQUILIBRIUM

           COMPOSITION DURING EXPANSION FROM INFINITE AREA COMBUSTOR

 Pin =   217.6 PSIA
 CASE = ethanol-95-n2o 

             REACTANT                    WT FRACTION      ENERGY      TEMP
                                          (SEE NOTE)     KJ/KG-MOL      K  
 FUEL        C2H5OH(L)                    0.9500000   -277526.835    298.000
 FUEL        H2O(L)                       0.0500000   -285841.390    298.000
 OXIDANT     N2O                          1.0000000     81594.206    298.000

 O/F=    3.90000  %FUEL= 20.408163  R,EQ.RATIO= 1.313536  PHI,EQ.RATIO= 1.396323

                 CHAMBER   THROAT     EXIT     EXIT     EXIT     EXIT     EXIT     EXIT
 Pinf/P            1.0000   1.7536   12.560   13.607   14.653   15.700   16.747   17.793
 P, BAR            15.000   8.5538   1.1943   1.1024   1.0237  0.95541  0.89570  0.84301
 T, K             3009.02  2804.76  2032.99  2002.53  1974.61  1948.86  1924.98  1902.76
 RHO, KG/CU M    1.4815 0 9.1386-1 1.7793-1 1.6676-1 1.5704-1 1.4851-1 1.4096-1 1.3422-1
 H, KJ/KG          145.67  -401.49 -1981.41 -2034.73 -2083.38 -2128.06 -2169.32 -2207.62
 U, KJ/KG         -866.85 -1337.51 -2652.59 -2695.82 -2735.22 -2771.37 -2804.73 -2835.68
 G, KJ/KG        -31898.4 -30270.3 -23631.3 -23360.3 -23111.6 -22882.0 -22669.1 -22470.7
 S, KJ/(KG)(K)    10.6493  10.6493  10.6493  10.6493  10.6493  10.6493  10.6493  10.6493

 M, (1/n)          24.709   24.914   25.184   25.186   25.187   25.188   25.189   25.190
 (dLV/dLP)t      -1.01059 -1.00617 -1.00018 -1.00015 -1.00013 -1.00011 -1.00009 -1.00008
 (dLV/dLT)p        1.2279   1.1426   1.0054   1.0045   1.0039   1.0033   1.0028   1.0025
 Cp, KJ/(KG)(K)    3.4598   2.8884   1.7652   1.7541   1.7449   1.7372   1.7305   1.7248
 GAMMAs            1.1575   1.1691   1.2329   1.2342   1.2354   1.2364   1.2372   1.2380
 SON VEL,M/SEC     1082.6   1046.1    909.7    903.3    897.4    891.8    886.6    881.8
 MACH NUMBER        0.000    1.000    2.267    2.312    2.353    2.391    2.427    2.460

 PERFORMANCE PARAMETERS

 Ae/At                      1.0000   2.6048   2.7453   2.8831   3.0185   3.1518   3.2829
 CSTAR, M/SEC               1569.1   1569.1   1569.1   1569.1   1569.1   1569.1   1569.1
 CF                         0.6667   1.3145   1.3309   1.3456   1.3591   1.3713   1.3826
 Ivac, M/SEC                1940.9   2388.0   2404.8   2420.1   2434.1   2447.0   2459.0
 Isp, M/SEC                 1046.1   2062.6   2088.3   2111.4   2132.5   2151.7   2169.5


 MOLE FRACTIONS

 *CO              0.13170  0.12710  0.11427  0.11365  0.11305  0.11248  0.11193  0.11140
 *CO2             0.07627  0.08260  0.09770  0.09834  0.09895  0.09953  0.10008  0.10062
 *H               0.01020  0.00686  0.00048  0.00041  0.00035  0.00030  0.00026  0.00023
 HO2              0.00001  0.00000  0.00000  0.00000  0.00000  0.00000  0.00000  0.00000
 *H2              0.05907  0.05792  0.06612  0.06677  0.06738  0.06796  0.06852  0.06906
 H2O              0.25384  0.26253  0.26575  0.26519  0.26464  0.26410  0.26358  0.26308
 *NO              0.00405  0.00210  0.00002  0.00001  0.00001  0.00001  0.00001  0.00001
 *N2              0.44481  0.44950  0.45542  0.45545  0.45547  0.45549  0.45551  0.45552
 *O               0.00154  0.00065  0.00000  0.00000  0.00000  0.00000  0.00000  0.00000
 *OH              0.01588  0.00956  0.00023  0.00018  0.00015  0.00012  0.00010  0.00008
 *O2              0.00262  0.00118  0.00000  0.00000  0.00000  0.00000  0.00000  0.00000

  * THERMODYNAMIC PROPERTIES FITTED TO 20000.K

    PRODUCTS WHICH WERE CONSIDERED BUT WHOSE MOLE FRACTIONS
    WERE LESS THAN 5.000000E-06 FOR ALL ASSIGNED CONDITIONS

 *C              *CH             CH2             CH3             CH2OH          
 CH3O            CH4             CH3OH           CH3OOH          *CN            
 CNN             COOH            *C2             C2H             C2H2,acetylene 
 C2H2,vinylidene CH2CO,ketene    O(CH)2O         HO(CO)2OH       C2H3,vinyl     
 CH3CN           CH3CO,acetyl    C2H4            C2H4O,ethylen-o CH3CHO,ethanal 
 CH3COOH         OHCH2COOH       C2H5            C2H6            CH3N2CH3       
 C2H5OH          CH3OCH3         CH3O2CH3        CCN             CNC            
 OCCN            C2N2            C2O             *C3             C3H3,1-propynl 
 C3H3,2-propynl  C3H4,allene     C3H4,propyne    C3H4,cyclo-     C3H5,allyl     
 C3H6,propylene  C3H6,cyclo-     C3H6O,propylox  C3H6O,acetone   C3H6O,propanal 
 C3H7,n-propyl   C3H7,i-propyl   C3H8            C3H8O,1propanol C3H8O,2propanol
 CNCOCN          C3O2            *C4             C4H2,butadiyne  C4H4,1,3-cyclo-
 C4H6,butadiene  C4H6,1butyne    C4H6,2butyne    C4H6,cyclo-     C4H8,1-butene  
 C4H8,cis2-buten C4H8,tr2-butene C4H8,isobutene  C4H8,cyclo-     (CH3COOH)2     
 C4H9,n-butyl    C4H9,i-butyl    C4H9,s-butyl    C4H9,t-butyl    C4H10,n-butane 
 C4H10,isobutane C4N2            *C5             C5H6,1,3cyclo-  C5H8,cyclo-    
 C5H10,1-pentene C5H10,cyclo-    C5H11,pentyl    C5H11,t-pentyl  C5H12,n-pentane
 C5H12,i-pentane CH3C(CH3)2CH3   C6H2            C6H5,phenyl     C6H5O,phenoxy  
 C6H6            C6H5OH,phenol   C6H10,cyclo-    C6H12,1-hexene  C6H12,cyclo-   
 C6H13,n-hexyl   C6H14,n-hexane  C7H7,benzyl     C7H8            C7H8O,cresol-mx
 C7H14,1-heptene C7H15,n-heptyl  C7H16,n-heptane C7H16,2-methylh C8H8,styrene   
 C8H10,ethylbenz C8H16,1-octene  C8H17,n-octyl   C8H18,n-octane  C8H18,isooctane
 C9H19,n-nonyl   C10H8,naphthale C10H21,n-decyl  C12H9,o-bipheny C12H10,biphenyl
 HCN             HCO             HCCN            HCCO            HNC            
 HNCO            HNO             HNO2            HNO3            HCHO,formaldehy
 HCOOH           H2O2            (HCOOH)2        *N              NCO            
 *NH             NH2             NH3             NH2OH           NO2            
 NO3             NCN             N2H2            NH2NO2          N2H4           
 N2O             N2O3            N2O4            N2O5            N3             
 N3H             O3              C(gr)           H2O(cr)         H2O(L)         

 NOTE. WEIGHT FRACTION OF FUEL IN TOTAL FUELS AND OF OXIDANT IN TOTAL OXIDANTS





   3    3    1881.977     -14.942     -11.089     -22.047     -13.876

   4    3    1862.484     -14.881     -11.096     -22.206     -13.886

   5    3    1844.138     -14.822     -11.103     -22.358     -13.895

   6    3    1826.821     -14.765     -11.110     -22.506     -13.904

   7    2    1810.432     -14.709     -11.116     -22.648     -13.913






              THEORETICAL ROCKET PERFORMANCE ASSUMING EQUILIBRIUM

           COMPOSITION DURING EXPANSION FROM INFINITE AREA COMBUSTOR

 Pin =   217.6 PSIA
 CASE = ethanol-95-n2o 

             REACTANT                    WT FRACTION      ENERGY      TEMP
                                          (SEE NOTE)     KJ/KG-MOL      K  
 FUEL        C2H5OH(L)                    0.9500000   -277526.835    298.000
 FUEL        H2O(L)                       0.0500000   -285841.390    298.000
 OXIDANT     N2O                          1.0000000     81594.206    298.000

 O/F=    3.90000  %FUEL= 20.408163  R,EQ.RATIO= 1.313536  PHI,EQ.RATIO= 1.396323

                 CHAMBER   THROAT     EXIT     EXIT     EXIT     EXIT     EXIT
 Pinf/P            1.0000   1.7536   18.840   19.887   20.933   21.980   23.027
 P, BAR            15.000   8.5538  0.79617  0.75427  0.71656  0.68243  0.65141
 T, K             3009.02  2804.76  1881.98  1862.48  1844.14  1826.82  1810.43
 RHO, KG/CU M    1.4815 0 9.1386-1 1.2817-1 1.2270-1 1.1772-1 1.1318-1 1.0902-1
 H, KJ/KG          145.67  -401.49 -2243.32 -2276.73 -2308.11 -2337.67 -2365.59
 U, KJ/KG         -866.85 -1337.51 -2864.51 -2891.47 -2916.78 -2940.62 -2963.13
 G, KJ/KG        -31898.4 -30270.3 -22285.1 -22110.9 -21946.9 -21792.1 -21645.4
 S, KJ/(KG)(K)    10.6493  10.6493  10.6493  10.6493  10.6493  10.6493  10.6493

 M, (1/n)          24.709   24.914   25.190   25.191   25.191   25.191   25.192
 (dLV/dLP)t      -1.01059 -1.00617 -1.00007 -1.00006 -1.00005 -1.00005 -1.00004
 (dLV/dLT)p        1.2279   1.1426   1.0022   1.0019   1.0017   1.0015   1.0013
 Cp, KJ/(KG)(K)    3.4598   2.8884   1.7197   1.7153   1.7113   1.7078   1.7046
 GAMMAs            1.1575   1.1691   1.2387   1.2393   1.2399   1.2404   1.2408
 SON VEL,M/SEC     1082.6   1046.1    877.2    872.8    868.7    864.8    861.1
 MACH NUMBER        0.000    1.000    2.492    2.522    2.550    2.577    2.603

 PERFORMANCE PARAMETERS

 Ae/At                      1.0000   3.4122   3.5398   3.6657   3.7900   3.9129
 CSTAR, M/SEC               1569.1   1569.1   1569.1   1569.1   1569.1   1569.1
 CF                         0.6667   1.3931   1.4028   1.4119   1.4203   1.4283
 Ivac, M/SEC                1940.9   2470.0   2480.4   2490.1   2499.2   2507.7
 Isp, M/SEC                 1046.1   2185.9   2201.1   2215.3   2228.6   2241.1


 MOLE FRACTIONS

 *CO              0.13170  0.12710  0.11089  0.11040  0.10993  0.10946  0.10901
 *CO2             0.07627  0.08260  0.10113  0.10163  0.10211  0.10257  0.10302
 *H               0.01020  0.00686  0.00020  0.00018  0.00016  0.00014  0.00013
 HO2              0.00001  0.00000  0.00000  0.00000  0.00000  0.00000  0.00000
 *H2              0.05907  0.05792  0.06958  0.07008  0.07057  0.07103  0.07149
 H2O              0.25384  0.26253  0.26259  0.26211  0.26164  0.26119  0.26075
 *NO              0.00405  0.00210  0.00000  0.00000  0.00000  0.00000  0.00000
 *N2              0.44481  0.44950  0.45553  0.45554  0.45555  0.45555  0.45556
 *O               0.00154  0.00065  0.00000  0.00000  0.00000  0.00000  0.00000
 *OH              0.01588  0.00956  0.00007  0.00006  0.00005  0.00004  0.00004
 *O2              0.00262  0.00118  0.00000  0.00000  0.00000  0.00000  0.00000

  * THERMODYNAMIC PROPERTIES FITTED TO 20000.K

    PRODUCTS WHICH WERE CONSIDERED BUT WHOSE MOLE FRACTIONS
    WERE LESS THAN 5.000000E-06 FOR ALL ASSIGNED CONDITIONS

 *C              *CH             CH2             CH3             CH2OH          
 CH3O            CH4             CH3OH           CH3OOH          *CN            
 CNN             COOH            *C2             C2H             C2H2,acetylene 
 C2H2,vinylidene CH2CO,ketene    O(CH)2O         HO(CO)2OH       C2H3,vinyl     
 CH3CN           CH3CO,acetyl    C2H4            C2H4O,ethylen-o CH3CHO,ethanal 
 CH3COOH         OHCH2COOH       C2H5            C2H6            CH3N2CH3       
 C2H5OH          CH3OCH3         CH3O2CH3        CCN             CNC            
 OCCN            C2N2            C2O             *C3             C3H3,1-propynl 
 C3H3,2-propynl  C3H4,allene     C3H4,propyne    C3H4,cyclo-     C3H5,allyl     
 C3H6,propylene  C3H6,cyclo-     C3H6O,propylox  C3H6O,acetone   C3H6O,propanal 
 C3H7,n-propyl   C3H7,i-propyl   C3H8            C3H8O,1propanol C3H8O,2propanol
 CNCOCN          C3O2            *C4             C4H2,butadiyne  C4H4,1,3-cyclo-
 C4H6,butadiene  C4H6,1butyne    C4H6,2butyne    C4H6,cyclo-     C4H8,1-butene  
 C4H8,cis2-buten C4H8,tr2-butene C4H8,isobutene  C4H8,cyclo-     (CH3COOH)2     
 C4H9,n-butyl    C4H9,i-butyl    C4H9,s-butyl    C4H9,t-butyl    C4H10,n-butane 
 C4H10,isobutane C4N2            *C5             C5H6,1,3cyclo-  C5H8,cyclo-    
 C5H10,1-pentene C5H10,cyclo-    C5H11,pentyl    C5H11,t-pentyl  C5H12,n-pentane
 C5H12,i-pentane CH3C(CH3)2CH3   C6H2            C6H5,phenyl     C6H5O,phenoxy  
 C6H6            C6H5OH,phenol   C6H10,cyclo-    C6H12,1-hexene  C6H12,cyclo-   
 C6H13,n-hexyl   C6H14,n-hexane  C7H7,benzyl     C7H8            C7H8O,cresol-mx
 C7H14,1-heptene C7H15,n-heptyl  C7H16,n-heptane C7H16,2-methylh C8H8,styrene   
 C8H10,ethylbenz C8H16,1-octene  C8H17,n-octyl   C8H18,n-octane  C8H18,isooctane
 C9H19,n-nonyl   C10H8,naphthale C10H21,n-decyl  C12H9,o-bipheny C12H10,biphenyl
 HCN             HCO             HCCN            HCCO            HNC            
 HNCO            HNO             HNO2            HNO3            HCHO,formaldehy
 HCOOH           H2O2            (HCOOH)2        *N              NCO            
 *NH             NH2             NH3             NH2OH           NO2            
 NO3             NCN             N2H2            NH2NO2          N2H4           
 N2O             N2O3            N2O4            N2O5            N3             
 N3H             O3              C(gr)           H2O(cr)         H2O(L)         

 NOTE. WEIGHT FRACTION OF FUEL IN TOTAL FUELS AND OF OXIDANT IN TOTAL OXIDANTS






 POINT ITN      T            C           H           O           N 

   1    2    3013.311     -16.090     -10.459     -16.752     -13.218

 Pinf/Pt = 1.746001
   2    4    2809.170     -16.200     -10.624     -17.294     -13.362

 Pinf/Pt = 1.754064
   2    2    2807.452     -16.200     -10.625     -17.299     -13.363

 Pinf/Pt = 1.754153
   2    1    2807.433     -16.200     -10.625     -17.299     -13.363

   3    5    2032.650     -15.297     -11.001     -20.930     -13.770

   4    3    2002.177     -15.219     -11.013     -21.141     -13.785

   5    3    1974.238     -15.145     -11.023     -21.341     -13.798

   6    3    1948.474     -15.073     -11.032     -21.531     -13.811

   7    3    1924.593     -15.005     -11.041     -21.712     -13.822

   8    3    1902.360     -14.939     -11.049     -21.885     -13.833






              THEORETICAL ROCKET PERFORMANCE ASSUMING EQUILIBRIUM

           COMPOSITION DURING EXPANSION FROM INFINITE AREA COMBUSTOR

 Pin =   232.1 PSIA
 CASE = ethanol-95-n2o 

             REACTANT                    WT FRACTION      ENERGY      TEMP
                                          (SEE NOTE)     KJ/KG-MOL      K  
 FUEL        C2H5OH(L)                    0.9500000   -277526.835    298.000
 FUEL        H2O(L)                       0.0500000   -285841.390    298.000
 OXIDANT     N2O                          1.0000000     81594.206    298.000

 O/F=    3.90000  %FUEL= 20.408163  R,EQ.RATIO= 1.313536  PHI,EQ.RATIO= 1.396323

                 CHAMBER   THROAT     EXIT     EXIT     EXIT     EXIT     EXIT     EXIT
 Pinf/P            1.0000   1.7542   12.560   13.607   14.653   15.700   16.747   17.793
 P, BAR            16.000   9.1212   1.2739   1.1759   1.0919   1.0191  0.95541  0.89921
 T, K             3013.31  2807.43  2032.65  2002.18  1974.24  1948.47  1924.59  1902.36
 RHO, KG/CU M    1.5785 0 9.7380-1 1.8983-1 1.7791-1 1.6754-1 1.5845-1 1.5039-1 1.4320-1
 H, KJ/KG          145.67  -402.28 -1982.24 -2035.55 -2084.19 -2128.86 -2170.11 -2208.40
 U, KJ/KG         -867.94 -1338.95 -2653.30 -2696.51 -2735.89 -2772.03 -2805.39 -2836.32
 G, KJ/KG        -31878.6 -30238.6 -23584.4 -23313.9 -23065.6 -22836.5 -22623.9 -22425.9
 S, KJ/(KG)(K)    10.6276  10.6276  10.6276  10.6276  10.6276  10.6276  10.6276  10.6276

 M, (1/n)          24.718   24.921   25.185   25.186   25.187   25.188   25.189   25.190
 (dLV/dLP)t      -1.01039 -1.00602 -1.00018 -1.00015 -1.00012 -1.00011 -1.00009 -1.00008
 (dLV/dLT)p        1.2235   1.1391   1.0052   1.0044   1.0037   1.0032   1.0027   1.0024
 Cp, KJ/(KG)(K)    3.4264   2.8607   1.7633   1.7525   1.7435   1.7359   1.7295   1.7238
 GAMMAs            1.1582   1.1700   1.2331   1.2344   1.2355   1.2365   1.2373   1.2381
 SON VEL,M/SEC     1083.5   1046.9    909.7    903.3    897.3    891.8    886.6    881.7
 MACH NUMBER        0.000    1.000    2.268    2.312    2.353    2.392    2.427    2.461

 PERFORMANCE PARAMETERS

 Ae/At                      1.0000   2.6031   2.7435   2.8812   3.0165   3.1497   3.2808
 CSTAR, M/SEC               1569.5   1569.5   1569.5   1569.5   1569.5   1569.5   1569.5
 CF                         0.6670   1.3144   1.3308   1.3455   1.3589   1.3712   1.3825
 Ivac, M/SEC                1941.6   2388.3   2405.1   2420.4   2434.4   2447.3   2459.2
 Isp, M/SEC                 1046.9   2063.0   2088.6   2111.8   2132.8   2152.1   2169.8


 MOLE FRACTIONS

 *CO              0.13163  0.12705  0.11427  0.11364  0.11304  0.11247  0.11192  0.11140
 *CO2             0.07642  0.08270  0.09771  0.09835  0.09896  0.09954  0.10009  0.10063
 *H               0.01000  0.00670  0.00046  0.00039  0.00034  0.00029  0.00026  0.00022
 HO2              0.00001  0.00000  0.00000  0.00000  0.00000  0.00000  0.00000  0.00000
 *H2              0.05896  0.05785  0.06613  0.06678  0.06739  0.06797  0.06853  0.06907
 H2O              0.25427  0.26285  0.26576  0.26519  0.26464  0.26410  0.26358  0.26307
 *NO              0.00401  0.00206  0.00002  0.00001  0.00001  0.00001  0.00001  0.00001
 *N2              0.44498  0.44963  0.45543  0.45546  0.45548  0.45550  0.45551  0.45552
 *O               0.00149  0.00062  0.00000  0.00000  0.00000  0.00000  0.00000  0.00000
 *OH              0.01567  0.00938  0.00022  0.00018  0.00014  0.00012  0.00010  0.00008
 *O2              0.00254  0.00113  0.00000  0.00000  0.00000  0.00000  0.00000  0.00000

  * THERMODYNAMIC PROPERTIES FITTED TO 20000.K

    PRODUCTS WHICH WERE CONSIDERED BUT WHOSE MOLE FRACTIONS
    WERE LESS THAN 5.000000E-06 FOR ALL ASSIGNED CONDITIONS

 *C              *CH             CH2             CH3             CH2OH          
 CH3O            CH4             CH3OH           CH3OOH          *CN            
 CNN             COOH            *C2             C2H             C2H2,acetylene 
 C2H2,vinylidene CH2CO,ketene    O(CH)2O         HO(CO)2OH       C2H3,vinyl     
 CH3CN           CH3CO,acetyl    C2H4            C2H4O,ethylen-o CH3CHO,ethanal 
 CH3COOH         OHCH2COOH       C2H5            C2H6            CH3N2CH3       
 C2H5OH          CH3OCH3         CH3O2CH3        CCN             CNC            
 OCCN            C2N2            C2O             *C3             C3H3,1-propynl 
 C3H3,2-propynl  C3H4,allene     C3H4,propyne    C3H4,cyclo-     C3H5,allyl     
 C3H6,propylene  C3H6,cyclo-     C3H6O,propylox  C3H6O,acetone   C3H6O,propanal 
 C3H7,n-propyl   C3H7,i-propyl   C3H8            C3H8O,1propanol C3H8O,2propanol
 CNCOCN          C3O2            *C4             C4H2,butadiyne  C4H4,1,3-cyclo-
 C4H6,butadiene  C4H6,1butyne    C4H6,2butyne    C4H6,cyclo-     C4H8,1-butene  
 C4H8,cis2-buten C4H8,tr2-butene C4H8,isobutene  C4H8,cyclo-     (CH3COOH)2     
 C4H9,n-butyl    C4H9,i-butyl    C4H9,s-butyl    C4H9,t-butyl    C4H10,n-butane 
 C4H10,isobutane C4N2            *C5             C5H6,1,3cyclo-  C5H8,cyclo-    
 C5H10,1-pentene C5H10,cyclo-    C5H11,pentyl    C5H11,t-pentyl  C5H12,n-pentane
 C5H12,i-pentane CH3C(CH3)2CH3   C6H2            C6H5,phenyl     C6H5O,phenoxy  
 C6H6            C6H5OH,phenol   C6H10,cyclo-    C6H12,1-hexene  C6H12,cyclo-   
 C6H13,n-hexyl   C6H14,n-hexane  C7H7,benzyl     C7H8            C7H8O,cresol-mx
 C7H14,1-heptene C7H15,n-heptyl  C7H16,n-heptane C7H16,2-methylh C8H8,styrene   
 C8H10,ethylbenz C8H16,1-octene  C8H17,n-octyl   C8H18,n-octane  C8H18,isooctane
 C9H19,n-nonyl   C10H8,naphthale C10H21,n-decyl  C12H9,o-bipheny C12H10,biphenyl
 HCN             HCO             HCCN            HCCO            HNC            
 HNCO            HNO             HNO2            HNO3            HCHO,formaldehy
 HCOOH           H2O2            (HCOOH)2        *N              NCO            
 *NH             NH2             NH3             NH2OH           NO2            
 NO3             NCN             N2H2            NH2NO2          N2H4           
 N2O             N2O3            N2O4            N2O5            N3             
 N3H             O3              C(gr)           H2O(cr)         H2O(L)         

 NOTE. WEIGHT FRACTION OF FUEL IN TOTAL FUELS AND OF OXIDANT IN TOTAL OXIDANTS





   3    3    1881.577     -14.876     -11.057     -22.050     -13.844

   4    3    1862.081     -14.814     -11.064     -22.209     -13.853

   5    3    1843.733     -14.755     -11.071     -22.362     -13.863

   6    3    1826.414     -14.698     -11.077     -22.509     -13.871

   7    2    1810.024     -14.642     -11.083     -22.651     -13.880






              THEORETICAL ROCKET PERFORMANCE ASSUMING EQUILIBRIUM

           COMPOSITION DURING EXPANSION FROM INFINITE AREA COMBUSTOR

 Pin =   232.1 PSIA
 CASE = ethanol-95-n2o 

             REACTANT                    WT FRACTION      ENERGY      TEMP
                                          (SEE NOTE)     KJ/KG-MOL      K  
 FUEL        C2H5OH(L)                    0.9500000   -277526.835    298.000
 FUEL        H2O(L)                       0.0500000   -285841.390    298.000
 OXIDANT     N2O                          1.0000000     81594.206    298.000

 O/F=    3.90000  %FUEL= 20.408163  R,EQ.RATIO= 1.313536  PHI,EQ.RATIO= 1.396323

                 CHAMBER   THROAT     EXIT     EXIT     EXIT     EXIT     EXIT
 Pinf/P            1.0000   1.7542   18.840   19.887   20.933   21.980   23.027
 P, BAR            16.000   9.1212  0.84925  0.80455  0.76433  0.72793  0.69484
 T, K             3013.31  2807.43  1881.58  1862.08  1843.73  1826.41  1810.02
 RHO, KG/CU M    1.5785 0 9.7380-1 1.3674-1 1.3091-1 1.2560-1 1.2076-1 1.1631-1
 H, KJ/KG          145.67  -402.28 -2244.09 -2277.50 -2308.87 -2338.42 -2366.34
 U, KJ/KG         -867.94 -1338.95 -2865.14 -2892.10 -2917.41 -2941.23 -2963.74
 G, KJ/KG        -31878.6 -30238.6 -22240.7 -22067.0 -21903.3 -21748.8 -21602.5
 S, KJ/(KG)(K)    10.6276  10.6276  10.6276  10.6276  10.6276  10.6276  10.6276

 M, (1/n)          24.718   24.921   25.190   25.191   25.191   25.191   25.192
 (dLV/dLP)t      -1.01039 -1.00602 -1.00007 -1.00006 -1.00005 -1.00005 -1.00004
 (dLV/dLT)p        1.2235   1.1391   1.0021   1.0018   1.0016   1.0014   1.0013
 Cp, KJ/(KG)(K)    3.4264   2.8607   1.7189   1.7145   1.7107   1.7072   1.7041
 GAMMAs            1.1582   1.1700   1.2388   1.2394   1.2399   1.2405   1.2409
 SON VEL,M/SEC     1083.5   1046.9    877.1    872.8    868.7    864.7    861.0
 MACH NUMBER        0.000    1.000    2.492    2.522    2.551    2.578    2.603

 PERFORMANCE PARAMETERS

 Ae/At                      1.0000   3.4100   3.5374   3.6632   3.7875   3.9103
 CSTAR, M/SEC               1569.5   1569.5   1569.5   1569.5   1569.5   1569.5
 CF                         0.6670   1.3929   1.4026   1.4117   1.4201   1.4281
 Ivac, M/SEC                1941.6   2470.3   2480.6   2490.3   2499.4   2508.0
 Isp, M/SEC                 1046.9   2186.2   2201.4   2215.6   2228.9   2241.4


 MOLE FRACTIONS

 *CO              0.13163  0.12705  0.11089  0.11039  0.10992  0.10945  0.10900
 *CO2             0.07642  0.08270  0.10114  0.10164  0.10212  0.10258  0.10303
 *H               0.01000  0.00670  0.00020  0.00018  0.00016  0.00014  0.00013
 HO2              0.00001  0.00000  0.00000  0.00000  0.00000  0.00000  0.00000
 *H2              0.05896  0.05785  0.06959  0.07009  0.07058  0.07105  0.07150
 H2O              0.25427  0.26285  0.26258  0.26210  0.26164  0.26118  0.26074
 *NO              0.00401  0.00206  0.00000  0.00000  0.00000  0.00000  0.00000
 *N2              0.44498  0.44963  0.45553  0.45554  0.45555  0.45555  0.45556
 *O               0.00149  0.00062  0.00000  0.00000  0.00000  0.00000  0.00000
 *OH              0.01567  0.00938  0.00007  0.00006  0.00005  0.00004  0.00004
 *O2              0.00254  0.00113  0.00000  0.00000  0.00000  0.00000  0.00000

  * THERMODYNAMIC PROPERTIES FITTED TO 20000.K

    PRODUCTS WHICH WERE CONSIDERED BUT WHOSE MOLE FRACTIONS
    WERE LESS THAN 5.000000E-06 FOR ALL ASSIGNED CONDITIONS

 *C              *CH             CH2             CH3             CH2OH          
 CH3O            CH4             CH3OH           CH3OOH          *CN            
 CNN             COOH            *C2             C2H             C2H2,acetylene 
 C2H2,vinylidene CH2CO,ketene    O(CH)2O         HO(CO)2OH       C2H3,vinyl     
 CH3CN           CH3CO,acetyl    C2H4            C2H4O,ethylen-o CH3CHO,ethanal 
 CH3COOH         OHCH2COOH       C2H5            C2H6            CH3N2CH3       
 C2H5OH          CH3OCH3         CH3O2CH3        CCN             CNC            
 OCCN            C2N2            C2O             *C3             C3H3,1-propynl 
 C3H3,2-propynl  C3H4,allene     C3H4,propyne    C3H4,cyclo-     C3H5,allyl     
 C3H6,propylene  C3H6,cyclo-     C3H6O,propylox  C3H6O,acetone   C3H6O,propanal 
 C3H7,n-propyl   C3H7,i-propyl   C3H8            C3H8O,1propanol C3H8O,2propanol
 CNCOCN          C3O2            *C4             C4H2,butadiyne  C4H4,1,3-cyclo-
 C4H6,butadiene  C4H6,1butyne    C4H6,2butyne    C4H6,cyclo-     C4H8,1-butene  
 C4H8,cis2-buten C4H8,tr2-butene C4H8,isobutene  C4H8,cyclo-     (CH3COOH)2     
 C4H9,n-butyl    C4H9,i-butyl    C4H9,s-butyl    C4H9,t-butyl    C4H10,n-butane 
 C4H10,isobutane C4N2            *C5             C5H6,1,3cyclo-  C5H8,cyclo-    
 C5H10,1-pentene C5H10,cyclo-    C5H11,pentyl    C5H11,t-pentyl  C5H12,n-pentane
 C5H12,i-pentane CH3C(CH3)2CH3   C6H2            C6H5,phenyl     C6H5O,phenoxy  
 C6H6            C6H5OH,phenol   C6H10,cyclo-    C6H12,1-hexene  C6H12,cyclo-   
 C6H13,n-hexyl   C6H14,n-hexane  C7H7,benzyl     C7H8            C7H8O,cresol-mx
 C7H14,1-heptene C7H15,n-heptyl  C7H16,n-heptane C7H16,2-methylh C8H8,styrene   
 C8H10,ethylbenz C8H16,1-octene  C8H17,n-octyl   C8H18,n-octane  C8H18,isooctane
 C9H19,n-nonyl   C10H8,naphthale C10H21,n-decyl  C12H9,o-bipheny C12H10,biphenyl
 HCN             HCO             HCCN            HCCO            HNC            
 HNCO            HNO             HNO2            HNO3            HCHO,formaldehy
 HCOOH           H2O2            (HCOOH)2        *N              NCO            
 *NH             NH2             NH3             NH2OH           NO2            
 NO3             NCN             N2H2            NH2NO2          N2H4           
 N2O             N2O3            N2O4            N2O5            N3             
 N3H             O3              C(gr)           H2O(cr)         H2O(L)         

 NOTE. WEIGHT FRACTION OF FUEL IN TOTAL FUELS AND OF OXIDANT IN TOTAL OXIDANTS






 POINT ITN      T            C           H           O           N 

   1    2    3017.303     -16.043     -10.432     -16.738     -13.190

 Pinf/Pt = 1.746408
   2    4    2811.674     -16.149     -10.595     -17.284     -13.333

 Pinf/Pt = 1.754580
   2    2    2809.921     -16.149     -10.597     -17.289     -13.334

 Pinf/Pt = 1.754671
   2    1    2809.902     -16.149     -10.597     -17.289     -13.334

   3    5    2032.337     -15.235     -10.971     -20.932     -13.740

   4    3    2001.847     -15.157     -10.982     -21.144     -13.754

   5    3    1973.895     -15.082     -10.992     -21.344     -13.768

   6    3    1948.120     -15.011     -11.001     -21.534     -13.780

   7    3    1924.233     -14.942     -11.010     -21.715     -13.792

   8    3    1901.994     -14.876     -11.018     -21.888     -13.803






              THEORETICAL ROCKET PERFORMANCE ASSUMING EQUILIBRIUM

           COMPOSITION DURING EXPANSION FROM INFINITE AREA COMBUSTOR

 Pin =   246.6 PSIA
 CASE = ethanol-95-n2o 

             REACTANT                    WT FRACTION      ENERGY      TEMP
                                          (SEE NOTE)     KJ/KG-MOL      K  
 FUEL        C2H5OH(L)                    0.9500000   -277526.835    298.000
 FUEL        H2O(L)                       0.0500000   -285841.390    298.000
 OXIDANT     N2O                          1.0000000     81594.206    298.000

 O/F=    3.90000  %FUEL= 20.408163  R,EQ.RATIO= 1.313536  PHI,EQ.RATIO= 1.396323

                 CHAMBER   THROAT     EXIT     EXIT     EXIT     EXIT     EXIT     EXIT
 Pinf/P            1.0000   1.7547   12.560   13.607   14.653   15.700   16.747   17.793
 P, BAR            17.000   9.6884   1.3535   1.2494   1.1601   1.0828   1.0151  0.95541
 T, K             3017.30  2809.90  2032.34  2001.85  1973.89  1948.12  1924.23  1901.99
 RHO, KG/CU M    1.6755 0 1.0337 0 2.0173-1 1.8906-1 1.7805-1 1.6838-1 1.5982-1 1.5218-1
 H, KJ/KG          145.67  -403.02 -1983.00 -2036.30 -2084.93 -2129.59 -2170.84 -2209.12
 U, KJ/KG         -868.94 -1340.29 -2653.95 -2697.15 -2736.52 -2772.65 -2805.99 -2836.92
 G, KJ/KG        -31859.5 -30208.2 -23540.4 -23270.3 -23022.4 -22793.7 -22581.6 -22384.0
 S, KJ/(KG)(K)    10.6072  10.6072  10.6072  10.6072  10.6072  10.6072  10.6072  10.6072

 M, (1/n)          24.726   24.927   25.185   25.186   25.188   25.189   25.189   25.190
 (dLV/dLP)t      -1.01021 -1.00589 -1.00017 -1.00014 -1.00012 -1.00010 -1.00009 -1.00008
 (dLV/dLT)p        1.2195   1.1359   1.0051   1.0042   1.0036   1.0031   1.0027   1.0023
 Cp, KJ/(KG)(K)    3.3953   2.8351   1.7616   1.7510   1.7423   1.7349   1.7285   1.7230
 GAMMAs            1.1588   1.1708   1.2333   1.2346   1.2357   1.2366   1.2375   1.2382
 SON VEL,M/SEC     1084.3   1047.6    909.6    903.2    897.3    891.7    886.6    881.7
 MACH NUMBER        0.000    1.000    2.268    2.313    2.354    2.392    2.428    2.461

 PERFORMANCE PARAMETERS

 Ae/At                      1.0000   2.6016   2.7418   2.8794   3.0147   3.1477   3.2788
 CSTAR, M/SEC               1569.9   1569.9   1569.9   1569.9   1569.9   1569.9   1569.9
 CF                         0.6673   1.3143   1.3306   1.3454   1.3588   1.3710   1.3823
 Ivac, M/SEC                1942.3   2388.5   2405.3   2420.6   2434.6   2447.5   2459.4
 Isp, M/SEC                 1047.6   2063.3   2089.0   2112.2   2133.2   2152.4   2170.2


 MOLE FRACTIONS

 *CO              0.13157  0.12701  0.11426  0.11364  0.11304  0.11247  0.11192  0.11139
 *CO2             0.07655  0.08279  0.09772  0.09836  0.09896  0.09954  0.10010  0.10063
 *H               0.00981  0.00655  0.00045  0.00038  0.00033  0.00028  0.00025  0.00022
 HO2              0.00001  0.00000  0.00000  0.00000  0.00000  0.00000  0.00000  0.00000
 *H2              0.05886  0.05779  0.06614  0.06679  0.06740  0.06798  0.06855  0.06908
 H2O              0.25467  0.26315  0.26576  0.26519  0.26464  0.26410  0.26358  0.26307
 *NO              0.00398  0.00203  0.00002  0.00001  0.00001  0.00001  0.00001  0.00000
 *N2              0.44515  0.44975  0.45543  0.45546  0.45548  0.45550  0.45551  0.45553
 *O               0.00145  0.00060  0.00000  0.00000  0.00000  0.00000  0.00000  0.00000
 *OH              0.01547  0.00922  0.00021  0.00017  0.00014  0.00011  0.00009  0.00008
 *O2              0.00248  0.00109  0.00000  0.00000  0.00000  0.00000  0.00000  0.00000

  * THERMODYNAMIC PROPERTIES FITTED TO 20000.K

    PRODUCTS WHICH WERE CONSIDERED BUT WHOSE MOLE FRACTIONS
    WERE LESS THAN 5.000000E-06 FOR ALL ASSIGNED CONDITIONS

 *C              *CH             CH2             CH3             CH2OH          
 CH3O            CH4             CH3OH           CH3OOH          *CN            
 CNN             COOH            *C2             C2H             C2H2,acetylene 
 C2H2,vinylidene CH2CO,ketene    O(CH)2O         HO(CO)2OH       C2H3,vinyl     
 CH3CN           CH3CO,acetyl    C2H4            C2H4O,ethylen-o CH3CHO,ethanal 
 CH3COOH         OHCH2COOH       C2H5            C2H6            CH3N2CH3       
 C2H5OH          CH3OCH3         CH3O2CH3        CCN             CNC            
 OCCN            C2N2            C2O             *C3             C3H3,1-propynl 
 C3H3,2-propynl  C3H4,allene     C3H4,propyne    C3H4,cyclo-     C3H5,allyl     
 C3H6,propylene  C3H6,cyclo-     C3H6O,propylox  C3H6O,acetone   C3H6O,propanal 
 C3H7,n-propyl   C3H7,i-propyl   C3H8            C3H8O,1propanol C3H8O,2propanol
 CNCOCN          C3O2            *C4             C4H2,butadiyne  C4H4,1,3-cyclo-
 C4H6,butadiene  C4H6,1butyne    C4H6,2butyne    C4H6,cyclo-     C4H8,1-butene  
 C4H8,cis2-buten C4H8,tr2-butene C4H8,isobutene  C4H8,cyclo-     (CH3COOH)2     
 C4H9,n-butyl    C4H9,i-butyl    C4H9,s-butyl    C4H9,t-butyl    C4H10,n-butane 
 C4H10,isobutane C4N2            *C5             C5H6,1,3cyclo-  C5H8,cyclo-    
 C5H10,1-pentene C5H10,cyclo-    C5H11,pentyl    C5H11,t-pentyl  C5H12,n-pentane
 C5H12,i-pentane CH3C(CH3)2CH3   C6H2            C6H5,phenyl     C6H5O,phenoxy  
 C6H6            C6H5OH,phenol   C6H10,cyclo-    C6H12,1-hexene  C6H12,cyclo-   
 C6H13,n-hexyl   C6H14,n-hexane  C7H7,benzyl     C7H8            C7H8O,cresol-mx
 C7H14,1-heptene C7H15,n-heptyl  C7H16,n-heptane C7H16,2-methylh C8H8,styrene   
 C8H10,ethylbenz C8H16,1-octene  C8H17,n-octyl   C8H18,n-octane  C8H18,isooctane
 C9H19,n-nonyl   C10H8,naphthale C10H21,n-decyl  C12H9,o-bipheny C12H10,biphenyl
[...]
 *NH             NH2             NH3             NH2OH           NO2            
 NO3             NCN             N2H2            NH2NO2          N2H4           
 N2O             N2O3            N2O4            N2O5            N3             
 N3H             O3              C(gr)           H2O(cr)         H2O(L)         

 NOTE. WEIGHT FRACTION OF FUEL IN TOTAL FUELS AND OF OXIDANT IN TOTAL OXIDANTS





   3    3    1985.390     -15.741     -11.183     -20.914     -13.778

   4    3    1965.297     -15.687     -11.190     -21.061     -13.787

   5    3    1946.365     -15.634     -11.197     -21.202     -13.797

   6    2    1928.476     -15.582     -11.203     -21.338     -13.806

   7    2    1911.530     -15.533     -11.209     -21.470     -13.814






              THEORETICAL ROCKET PERFORMANCE ASSUMING EQUILIBRIUM

           COMPOSITION DURING EXPANSION FROM INFINITE AREA COMBUSTOR

 Pin =   304.6 PSIA
 CASE = ethanol-95-n2o 

             REACTANT                    WT FRACTION      ENERGY      TEMP
                                          (SEE NOTE)     KJ/KG-MOL      K  
 FUEL        C2H5OH(L)                    0.9500000   -277526.835    298.000
 FUEL        H2O(L)                       0.0500000   -285841.390    298.000
 OXIDANT     N2O                          1.0000000     81594.206    298.000

 O/F=    4.20000  %FUEL= 19.230769  R,EQ.RATIO= 1.238186  PHI,EQ.RATIO= 1.296585

                 CHAMBER   THROAT     EXIT     EXIT     EXIT     EXIT     EXIT
 Pinf/P            1.0000   1.7460   18.840   19.887   20.933   21.980   23.027
 P, BAR            21.000   12.027   1.1146   1.0560   1.0032  0.95541  0.91198
 T, K             3077.83  2884.56  1985.39  1965.30  1946.36  1928.48  1911.53
 RHO, KG/CU M    2.0673 0 1.2752 0 1.7437-1 1.6689-1 1.6009-1 1.5389-1 1.4820-1
 H, KJ/KG          244.22  -301.57 -2181.84 -2216.23 -2248.53 -2278.96 -2307.71
 U, KJ/KG         -771.60 -1244.74 -2821.07 -2848.97 -2875.15 -2899.81 -2923.10
 G, KJ/KG        -31853.6 -30383.8 -22886.9 -22711.8 -22546.6 -22390.5 -22242.5
 S, KJ/(KG)(K)    10.4287  10.4287  10.4287  10.4287  10.4287  10.4287  10.4287

 M, (1/n)          25.192   25.429   25.824   25.825   25.826   25.826   25.827
 (dLV/dLP)t      -1.01309 -1.00865 -1.00013 -1.00012 -1.00010 -1.00009 -1.00008
 (dLV/dLT)p        1.2778   1.1969   1.0040   1.0035   1.0031   1.0028   1.0025
 Cp, KJ/(KG)(K)    3.7382   3.2383   1.7211   1.7145   1.7088   1.7037   1.6991
 GAMMAs            1.1508   1.1574   1.2322   1.2330   1.2338   1.2345   1.2351
 SON VEL,M/SEC     1081.2   1044.8    887.5    883.3    879.3    875.5    871.8
 MACH NUMBER        0.000    1.000    2.482    2.511    2.539    2.566    2.591

 PERFORMANCE PARAMETERS

 Ae/At                      1.0000   3.4687   3.5988   3.7272   3.8541   3.9794
 CSTAR, M/SEC               1576.2   1576.2   1576.2   1576.2   1576.2   1576.2
 CF                         0.6628   1.3975   1.4074   1.4166   1.4252   1.4333
 Ivac, M/SEC                1947.5   2492.9   2503.5   2513.5   2522.8   2531.6
 Isp, M/SEC                 1044.8   2202.8   2218.3   2232.8   2246.4   2259.2


 MOLE FRACTIONS

 *CO              0.11506  0.10886  0.09176  0.09138  0.09101  0.09066  0.09032
 *CO2             0.08474  0.09282  0.11306  0.11345  0.11382  0.11418  0.11453
 *H               0.00929  0.00655  0.00031  0.00028  0.00025  0.00022  0.00020
 HO2              0.00001  0.00000  0.00000  0.00000  0.00000  0.00000  0.00000
 *H2              0.04548  0.04313  0.04876  0.04914  0.04951  0.04987  0.05021
 H2O              0.25317  0.26312  0.27201  0.27167  0.27133  0.27100  0.27068
 *NO              0.00612  0.00363  0.00002  0.00001  0.00001  0.00001  0.00001
 *N2              0.45924  0.46483  0.47390  0.47391  0.47393  0.47394  0.47395
 *O               0.00225  0.00114  0.00000  0.00000  0.00000  0.00000  0.00000
 *OH              0.01969  0.01314  0.00019  0.00016  0.00014  0.00012  0.00010
 *O2              0.00492  0.00276  0.00000  0.00000  0.00000  0.00000  0.00000

  * THERMODYNAMIC PROPERTIES FITTED TO 20000.K

    PRODUCTS WHICH WERE CONSIDERED BUT WHOSE MOLE FRACTIONS
    WERE LESS THAN 5.000000E-06 FOR ALL ASSIGNED CONDITIONS

 *C              *CH             CH2             CH3             CH2OH          
 CH3O            CH4             CH3OH           CH3OOH          *CN            
 CNN             COOH            *C2             C2H             C2H2,acetylene 
 C2H2,vinylidene CH2CO,ketene    O(CH)2O         HO(CO)2OH       C2H3,vinyl     
 CH3CN           CH3CO,acetyl    C2H4            C2H4O,ethylen-o CH3CHO,ethanal 
 CH3COOH         OHCH2COOH       C2H5            C2H6            CH3N2CH3       
 C2H5OH          CH3OCH3         CH3O2CH3        CCN             CNC            
 OCCN            C2N2            C2O             *C3             C3H3,1-propynl 
 C3H3,2-propynl  C3H4,allene     C3H4,propyne    C3H4,cyclo-     C3H5,allyl     
 C3H6,propylene  C3H6,cyclo-     C3H6O,propylox  C3H6O,acetone   C3H6O,propanal 
 C3H7,n-propyl   C3H7,i-propyl   C3H8            C3H8O,1propanol C3H8O,2propanol
 CNCOCN          C3O2            *C4             C4H2,butadiyne  C4H4,1,3-cyclo-
 C4H6,butadiene  C4H6,1butyne    C4H6,2butyne    C4H6,cyclo-     C4H8,1-butene  
 C4H8,cis2-buten C4H8,tr2-butene C4H8,isobutene  C4H8,cyclo-     (CH3COOH)2     
 C4H9,n-butyl    C4H9,i-butyl    C4H9,s-butyl    C4H9,t-butyl    C4H10,n-butane 
 C4H10,isobutane C4N2            *C5             C5H6,1,3cyclo-  C5H8,cyclo-    
 C5H10,1-pentene C5H10,cyclo-    C5H11,pentyl    C5H11,t-pentyl  C5H12,n-pentane
 C5H12,i-pentane CH3C(CH3)2CH3   C6H2            C6H5,phenyl     C6H5O,phenoxy  
 C6H6            C6H5OH,phenol   C6H10,cyclo-    C6H12,1-hexene  C6H12,cyclo-   
 C6H13,n-hexyl   C6H14,n-hexane  C7H7,benzyl     C7H8            C7H8O,cresol-mx
 C7H14,1-heptene C7H15,n-heptyl  C7H16,n-heptane C7H16,2-methylh C8H8,styrene   
 C8H10,ethylbenz C8H16,1-octene  C8H17,n-octyl   C8H18,n-octane  C8H18,isooctane
 C9H19,n-nonyl   C10H8,naphthale C10H21,n-decyl  C12H9,o-bipheny C12H10,biphenyl
 HCN             HCO             HCCN            HCCO            HNC            
 HNCO            HNO             HNO2            HNO3            HCHO,formaldehy
 HCOOH           H2O2            (HCOOH)2        *N              NCO            
 *NH             NH2             NH3             NH2OH           NO2            
 NO3             NCN             N2H2            NH2NO2          N2H4           
 N2O             N2O3            N2O4            N2O5            N3             
 N3H             O3              C(gr)           H2O(cr)         H2O(L)         

 NOTE. WEIGHT FRACTION OF FUEL IN TOTAL FUELS AND OF OXIDANT IN TOTAL OXIDANTS






 POINT ITN      T            C           H           O           N 

   1    2    3081.334     -16.331     -10.471     -16.316     -13.085

 Pinf/Pt = 1.741769
   2    4    2887.946     -16.546     -10.659     -16.756     -13.236

 Pinf/Pt = 1.746370
   2    2    2887.022     -16.547     -10.660     -16.759     -13.236

   3    5    2139.764     -16.062     -11.105     -19.888     -13.679

   4    3    2108.721     -15.995     -11.116     -20.081     -13.694

   5    3    2080.176     -15.930     -11.126     -20.264     -13.708

   6    3    2053.789     -15.868     -11.135     -20.438     -13.721

   7    3    2029.282     -15.807     -11.144     -20.605     -13.732

   8    3    2006.426     -15.749     -11.152     -20.764     -13.744






              THEORETICAL ROCKET PERFORMANCE ASSUMING EQUILIBRIUM

           COMPOSITION DURING EXPANSION FROM INFINITE AREA COMBUSTOR

 Pin =   319.1 PSIA
 CASE = ethanol-95-n2o 

             REACTANT                    WT FRACTION      ENERGY      TEMP
                                          (SEE NOTE)     KJ/KG-MOL      K  
 FUEL        C2H5OH(L)                    0.9500000   -277526.835    298.000
 FUEL        H2O(L)                       0.0500000   -285841.390    298.000
 OXIDANT     N2O                          1.0000000     81594.206    298.000

 O/F=    4.20000  %FUEL= 19.230769  R,EQ.RATIO= 1.238186  PHI,EQ.RATIO= 1.296585

                 CHAMBER   THROAT     EXIT     EXIT     EXIT     EXIT     EXIT     EXIT
 Pinf/P            1.0000   1.7464   12.560   13.607   14.653   15.700   16.747   17.793
 P, BAR            22.000   12.598   1.7516   1.6168   1.5014   1.4013   1.3137   1.2364
 T, K             3081.33  2887.02  2139.76  2108.72  2080.18  2053.79  2029.28  2006.43
 RHO, KG/CU M    2.1639 0 1.3348 0 2.5415-1 2.3808-1 2.2412-1 2.1188-1 2.0105-1 1.9139-1
 H, KJ/KG          244.22  -302.17 -1913.37 -1968.13 -2018.12 -2064.04 -2106.47 -2145.86
 U, KJ/KG         -772.46 -1245.92 -2602.57 -2647.26 -2688.00 -2725.38 -2759.88 -2791.88
 G, KJ/KG        -31842.9 -30365.8 -24195.5 -23927.0 -23679.8 -23450.9 -23238.1 -23039.5
 S, KJ/(KG)(K)    10.4134  10.4134  10.4134  10.4134  10.4134  10.4134  10.4134  10.4134

 M, (1/n)          25.200   25.435   25.814   25.817   25.819   25.821   25.822   25.823
 (dLV/dLP)t      -1.01295 -1.00853 -1.00033 -1.00028 -1.00023 -1.00020 -1.00017 -1.00015
 (dLV/dLT)p        1.2746   1.1940   1.0097   1.0081   1.0069   1.0059   1.0051   1.0045
 Cp, KJ/(KG)(K)    3.7139   3.2156   1.7884   1.7714   1.7574   1.7457   1.7358   1.7273
 GAMMAs            1.1513   1.1579   1.2244   1.2262   1.2278   1.2292   1.2304   1.2314
 SON VEL,M/SEC     1081.9   1045.4    918.6    912.6    906.9    901.6    896.6    891.9
 MACH NUMBER        0.000    1.000    2.261    2.305    2.345    2.383    2.418    2.451

 PERFORMANCE PARAMETERS

 Ae/At                      1.0000   2.6430   2.7863   2.9269   3.0650   3.2009   3.3347
 CSTAR, M/SEC               1576.6   1576.6   1576.6   1576.6   1576.6   1576.6   1576.6
 CF                         0.6630   1.3176   1.3342   1.3492   1.3628   1.3752   1.3867
 Ivac, M/SEC                1948.2   2409.1   2426.4   2442.0   2456.4   2469.6   2481.8
 Isp, M/SEC                 1045.4   2077.3   2103.5   2127.1   2148.6   2168.3   2186.4


 MOLE FRACTIONS

 *CO              0.11496  0.10878  0.09437  0.09388  0.09341  0.09297  0.09255  0.09214
 *CO2             0.08490  0.09295  0.11038  0.11089  0.11137  0.11182  0.11226  0.11267
 *H               0.00916  0.00645  0.00065  0.00056  0.00049  0.00043  0.00038  0.00034
 HO2              0.00001  0.00000  0.00000  0.00000  0.00000  0.00000  0.00000  0.00000
 *H2              0.04538  0.04305  0.04618  0.04665  0.04711  0.04754  0.04797  0.04837
 H2O              0.25351  0.26340  0.27412  0.27377  0.27342  0.27306  0.27271  0.27235
 *NO              0.00609  0.00361  0.00006  0.00005  0.00004  0.00003  0.00002  0.00002
 *N2              0.45939  0.46496  0.47369  0.47375  0.47379  0.47383  0.47386  0.47388
 *O               0.00220  0.00111  0.00000  0.00000  0.00000  0.00000  0.00000  0.00000
 *OH              0.01953  0.01300  0.00055  0.00044  0.00037  0.00031  0.00026  0.00022
 *O2              0.00484  0.00270  0.00001  0.00001  0.00001  0.00000  0.00000  0.00000

  * THERMODYNAMIC PROPERTIES FITTED TO 20000.K

    PRODUCTS WHICH WERE CONSIDERED BUT WHOSE MOLE FRACTIONS
    WERE LESS THAN 5.000000E-06 FOR ALL ASSIGNED CONDITIONS

 *C              *CH             CH2             CH3             CH2OH          
 CH3O            CH4             CH3OH           CH3OOH          *CN            
 CNN             COOH            *C2             C2H             C2H2,acetylene 
 C2H2,vinylidene CH2CO,ketene    O(CH)2O         HO(CO)2OH       C2H3,vinyl     
 CH3CN           CH3CO,acetyl    C2H4            C2H4O,ethylen-o CH3CHO,ethanal 
 CH3COOH         OHCH2COOH       C2H5            C2H6            CH3N2CH3       
 C2H5OH          CH3OCH3         CH3O2CH3        CCN             CNC            
 OCCN            C2N2            C2O             *C3             C3H3,1-propynl 
 C3H3,2-propynl  C3H4,allene     C3H4,propyne    C3H4,cyclo-     C3H5,allyl     
 C3H6,propylene  C3H6,cyclo-     C3H6O,propylox  C3H6O,acetone   C3H6O,propanal 
 C3H7,n-propyl   C3H7,i-propyl   C3H8            C3H8O,1propanol C3H8O,2propanol
 CNCOCN          C3O2            *C4             C4H2,butadiyne  C4H4,1,3-cyclo-
 C4H6,butadiene  C4H6,1butyne    C4H6,2butyne    C4H6,cyclo-     C4H8,1-butene  
 C4H8,cis2-buten C4H8,tr2-butene C4H8,isobutene  C4H8,cyclo-     (CH3COOH)2     
 C4H9,n-butyl    C4H9,i-butyl    C4H9,s-butyl    C4H9,t-butyl    C4H10,n-butane 
 C4H10,isobutane C4N2            *C5             C5H6,1,3cyclo-  C5H8,cyclo-    
 C5H10,1-pentene C5H10,cyclo-    C5H11,pentyl    C5H11,t-pentyl  C5H12,n-pentane
 C5H12,i-pentane CH3C(CH3)2CH3   C6H2            C6H5,phenyl     C6H5O,phenoxy  
 C6H6            C6H5OH,phenol   C6H10,cyclo-    C6H12,1-hexene  C6H12,cyclo-   
 C6H13,n-hexyl   C6H14,n-hexane  C7H7,benzyl     C7H8            C7H8O,cresol-mx
 C7H14,1-heptene C7H15,n-heptyl  C7H16,n-heptane C7H16,2-methylh C8H8,styrene   
 C8H10,ethylbenz C8H16,1-octene  C8H17,n-octyl   C8H18,n-octane  C8H18,isooctane
 C9H19,n-nonyl   C10H8,naphthale C10H21,n-decyl  C12H9,o-bipheny C12H10,biphenyl
 HCN             HCO             HCCN            HCCO            HNC            
 HNCO            HNO             HNO2            HNO3            HCHO,formaldehy
 HCOOH           H2O2            (HCOOH)2        *N              NCO            
 *NH             NH2             NH3             NH2OH           NO2            
 NO3             NCN             N2H2            NH2NO2          N2H4           
 N2O             N2O3            N2O4            N2O5            N3             
 N3H             O3              C(gr)           H2O(cr)         H2O(L)         

 NOTE. WEIGHT FRACTION OF FUEL IN TOTAL FUELS AND OF OXIDANT IN TOTAL OXIDANTS





   3    3    1985.028     -15.693     -11.159     -20.917     -13.754

   4    3    1964.929     -15.638     -11.166     -21.063     -13.764

   5    3    1945.991     -15.585     -11.173     -21.205     -13.773

   6    2    1928.098     -15.534     -11.179     -21.341     -13.782

   7    2    1911.149     -15.484     -11.185     -21.472     -13.791






              THEORETICAL ROCKET PERFORMANCE ASSUMING EQUILIBRIUM

           COMPOSITION DURING EXPANSION FROM INFINITE AREA COMBUSTOR

 Pin =   319.1 PSIA
 CASE = ethanol-95-n2o 

             REACTANT                    WT FRACTION      ENERGY      TEMP
                                          (SEE NOTE)     KJ/KG-MOL      K  
 FUEL        C2H5OH(L)                    0.9500000   -277526.835    298.000
 FUEL        H2O(L)                       0.0500000   -285841.390    298.000
 OXIDANT     N2O                          1.0000000     81594.206    298.000

 O/F=    4.20000  %FUEL= 19.230769  R,EQ.RATIO= 1.238186  PHI,EQ.RATIO= 1.296585

                 CHAMBER   THROAT     EXIT     EXIT     EXIT     EXIT     EXIT
 Pinf/P            1.0000   1.7464   18.840   19.887   20.933   21.980   23.027
 P, BAR            22.000   12.598   1.1677   1.1063   1.0509   1.0009  0.95541
 T, K             3081.33  2887.02  1985.03  1964.93  1945.99  1928.10  1911.15
 RHO, KG/CU M    2.1639 0 1.3348 0 1.8271-1 1.7487-1 1.6775-1 1.6125-1 1.5528-1
 H, KJ/KG          244.22  -302.17 -2182.58 -2216.96 -2249.25 -2279.68 -2308.43
 U, KJ/KG         -772.46 -1245.92 -2821.69 -2849.58 -2875.76 -2900.41 -2923.69
 G, KJ/KG        -31842.9 -30365.8 -22853.4 -22678.5 -22513.6 -22357.7 -22209.9
 S, KJ/(KG)(K)    10.4134  10.4134  10.4134  10.4134  10.4134  10.4134  10.4134

 M, (1/n)          25.200   25.435   25.824   25.825   25.826   25.826   25.827
 (dLV/dLP)t      -1.01295 -1.00853 -1.00013 -1.00011 -1.00010 -1.00009 -1.00008
 (dLV/dLT)p        1.2746   1.1940   1.0039   1.0034   1.0031   1.0027   1.0024
 Cp, KJ/(KG)(K)    3.7139   3.2156   1.7200   1.7136   1.7079   1.7029   1.6984
 GAMMAs            1.1513   1.1579   1.2323   1.2332   1.2339   1.2346   1.2352
 SON VEL,M/SEC     1081.9   1045.4    887.5    883.2    879.2    875.4    871.8
 MACH NUMBER        0.000    1.000    2.482    2.512    2.540    2.567    2.592

 PERFORMANCE PARAMETERS

 Ae/At                      1.0000   3.4665   3.5966   3.7249   3.8517   3.9770
 CSTAR, M/SEC               1576.6   1576.6   1576.6   1576.6   1576.6   1576.6
 CF                         0.6630   1.3973   1.4072   1.4164   1.4250   1.4331
 Ivac, M/SEC                1948.2   2493.2   2503.8   2513.7   2523.0   2531.8
 Isp, M/SEC                 1045.4   2203.1   2218.6   2233.1   2246.7   2259.5


 MOLE FRACTIONS

 *CO              0.11496  0.10878  0.09175  0.09137  0.09101  0.09065  0.09031
 *CO2             0.08490  0.09295  0.11307  0.11346  0.11383  0.11419  0.11453
 *H               0.00916  0.00645  0.00030  0.00027  0.00024  0.00022  0.00020
 HO2              0.00001  0.00000  0.00000  0.00000  0.00000  0.00000  0.00000
 *H2              0.04538  0.04305  0.04877  0.04915  0.04952  0.04987  0.05022
 H2O              0.25351  0.26340  0.27201  0.27166  0.27133  0.27100  0.27068
 *NO              0.00609  0.00361  0.00002  0.00001  0.00001  0.00001  0.00001
 *N2              0.45939  0.46496  0.47390  0.47392  0.47393  0.47394  0.47395
 *O               0.00220  0.00111  0.00000  0.00000  0.00000  0.00000  0.00000
 *OH              0.01953  0.01300  0.00018  0.00016  0.00014  0.00012  0.00010
 *O2              0.00484  0.00270  0.00000  0.00000  0.00000  0.00000  0.00000

  * THERMODYNAMIC PROPERTIES FITTED TO 20000.K

    PRODUCTS WHICH WERE CONSIDERED BUT WHOSE MOLE FRACTIONS
    WERE LESS THAN 5.000000E-06 FOR ALL ASSIGNED CONDITIONS

 *C              *CH             CH2             CH3             CH2OH          
 CH3O            CH4             CH3OH           CH3OOH          *CN            
 CNN             COOH            *C2             C2H             C2H2,acetylene 
 C2H2,vinylidene CH2CO,ketene    O(CH)2O         HO(CO)2OH       C2H3,vinyl     
 CH3CN           CH3CO,acetyl    C2H4            C2H4O,ethylen-o CH3CHO,ethanal 
 CH3COOH         OHCH2COOH       C2H5            C2H6            CH3N2CH3       
 C2H5OH          CH3OCH3         CH3O2CH3        CCN             CNC            
 OCCN            C2N2            C2O             *C3             C3H3,1-propynl 
 C3H3,2-propynl  C3H4,allene     C3H4,propyne    C3H4,cyclo-     C3H5,allyl     
 C3H6,propylene  C3H6,cyclo-     C3H6O,propylox  C3H6O,acetone   C3H6O,propanal 
 C3H7,n-propyl   C3H7,i-propyl   C3H8            C3H8O,1propanol C3H8O,2propanol
 CNCOCN          C3O2            *C4             C4H2,butadiyne  C4H4,1,3-cyclo-
 C4H6,butadiene  C4H6,1butyne    C4H6,2butyne    C4H6,cyclo-     C4H8,1-butene  
 C4H8,cis2-buten C4H8,tr2-butene C4H8,isobutene  C4H8,cyclo-     (CH3COOH)2     
 C4H9,n-butyl    C4H9,i-butyl    C4H9,s-butyl    C4H9,t-butyl    C4H10,n-butane 
 C4H10,isobutane C4N2            *C5             C5H6,1,3cyclo-  C5H8,cyclo-    
 C5H10,1-pentene C5H10,cyclo-    C5H11,pentyl    C5H11,t-pentyl  C5H12,n-pentane
 C5H12,i-pentane CH3C(CH3)2CH3   C6H2            C6H5,phenyl     C6H5O,phenoxy  
 C6H6            C6H5OH,phenol   C6H10,cyclo-    C6H12,1-hexene  C6H12,cyclo-   
 C6H13,n-hexyl   C6H14,n-hexane  C7H7,benzyl     C7H8            C7H8O,cresol-mx
 C7H14,1-heptene C7H15,n-heptyl  C7H16,n-heptane C7H16,2-methylh C8H8,styrene   
 C8H10,ethylbenz C8H16,1-octene  C8H17,n-octyl   C8H18,n-octane  C8H18,isooctane
 C9H19,n-nonyl   C10H8,naphthale C10H21,n-decyl  C12H9,o-bipheny C12H10,biphenyl
 HCN             HCO             HCCN            HCCO            HNC            
 HNCO            HNO             HNO2            HNO3            HCHO,formaldehy
 HCOOH           H2O2            (HCOOH)2        *N              NCO            
 *NH             NH2             NH3             NH2OH           NO2            
 NO3             NCN             N2H2            NH2NO2          N2H4           
 N2O             N2O3            N2O4            N2O5            N3             
 N3H             O3              C(gr)           H2O(cr)         H2O(L)         

 NOTE. WEIGHT FRACTION OF FUEL IN TOTAL FUELS AND OF OXIDANT IN TOTAL OXIDANTS



