
 *******************************************************************************

         NASA-GLENN CHEMICAL EQUILIBRIUM PROGRAM CEA2, MAY 21, 2004
                   BY  BONNIE MCBRIDE AND SANFORD GORDON
      REFS: NASA RP-1311, PART I, 1994 AND NASA RP-1311, PART II, 1996

 *******************************************************************************



 problem    o/f=1.0,1.5,2.0,
     rocket  frozen  nfz=1
   p,bar=10,
   pi/p=18.519,
 react
   fuel=C3H8O,2propanol wt=100  t,k=298
   fuel=H2O(L) wt=0  t,k=298
   oxid=O2 wt=100  t,k=298
 end

 OPTIONS: TP=F  HP=F  SP=F  TV=F  UV=F  SV=F  DETN=F  SHOCK=F  REFL=F  INCD=F
 RKT=T  FROZ=T  EQL=F  IONS=F  SIUNIT=T  DEBUGF=F  SHKDBG=F  DETDBG=F  TRNSPT=F

 TRACE= 0.00E+00  S/R= 0.000000E+00  H/R= 0.000000E+00  U/R= 0.000000E+00

 Pc,BAR =    10.000000

 Pc/P =    18.5190

 SUBSONIC AREA RATIOS =

 SUPERSONIC AREA RATIOS =

 NFZ=  1  Mdot/Ac= 0.000000E+00  Ac/At= 0.000000E+00

    REACTANT          WT.FRAC   (ENERGY/R),K   TEMP,K  DENSITY
        EXPLODED FORMULA
 F: C3H8O,2propanol  1.000000  -0.327997E+05   298.00  0.0000
          C  3.00000  H  8.00000  O  1.00000
 F: H2O(L)           0.000000  -0.343786E+05   298.00  0.0000
          H  2.00000  O  1.00000
 O: O2               1.000000  -0.530002E+00   298.00  0.0000
          O  2.00000

  SPECIES BEING CONSIDERED IN THIS SYSTEM
 (CONDENSED PHASE MAY HAVE NAME LISTED SEVERAL TIMES)
  LAST thermo.inp UPDATE:    9/09/04

  g 7/97  *C               tpis79  *CH              g 4/02  CH2            
  g 4/02  CH3              g11/00  CH2OH            g 7/00  CH3O           
  g 8/99  CH4              g 7/00  CH3OH            srd 01  CH3OOH         
  tpis79  *CO              g 9/99  *CO2             tpis91  COOH           
  tpis91  *C2              g 6/01  C2H              g 1/91  C2H2,acetylene 
  g 5/01  C2H2,vinylidene  g 4/02  CH2CO,ketene     g 3/02  O(CH)2O        
  srd 01  HO(CO)2OH        g 7/01  C2H3,vinyl       g 6/96  CH3CO,acetyl   
  g 1/00  C2H4             g 8/88  C2H4O,ethylen-o  g 8/88  CH3CHO,ethanal 
  g 6/00  CH3COOH          srd 01  OHCH2COOH        g 7/00  C2H5           
  g 7/00  C2H6             g 8/88  C2H5OH           g 7/00  CH3OCH3        
  srd 01  CH3O2CH3         g 8/00  C2O              tpis79  *C3            
  n 4/98  C3H3,1-propynl   n 4/98  C3H3,2-propynl   g 2/00  C3H4,allene    
  g 1/00  C3H4,propyne     g 5/90  C3H4,cyclo-      g 3/01  C3H5,allyl     
  g 2/00  C3H6,propylene   g 1/00  C3H6,cyclo-      g 6/01  C3H6O,propylox 
  g 6/97  C3H6O,acetone    g 1/02  C3H6O,propanal   g 7/01  C3H7,n-propyl  
  g 9/85  C3H7,i-propyl    g 2/00  C3H8             g 2/00  C3H8O,1propanol
  g 2/00  C3H8O,2propanol  g 7/88  C3O2             g tpis  *C4            
  g 7/01  C4H2,butadiyne   g 8/00  C4H4,1,3-cyclo-  n10/92  C4H6,butadiene 
  n10/93  C4H6,1butyne     n10/93  C4H6,2butyne     g 8/00  C4H6,cyclo-    
  n 4/88  C4H8,1-butene    n 4/88  C4H8,cis2-buten  n 4/88  C4H8,tr2-butene
  n 4/88  C4H8,isobutene   g 8/00  C4H8,cyclo-      g10/00  (CH3COOH)2     
  n10/84  C4H9,n-butyl     n10/84  C4H9,i-butyl     g 1/93  C4H9,s-butyl   
  g 1/93  C4H9,t-butyl     g12/00  C4H10,n-butane   g 8/00  C4H10,isobutane
  g 8/00  *C5              g 5/90  C5H6,1,3cyclo-   g 1/93  C5H8,cyclo-    
  n 4/87  C5H10,1-pentene  g 2/01  C5H10,cyclo-     n10/84  C5H11,pentyl   
  g 1/93  C5H11,t-pentyl   n10/85  C5H12,n-pentane  n10/85  C5H12,i-pentane
  n10/85  CH3C(CH3)2CH3    g 2/93  C6H2             g11/00  C6H5,phenyl    
  g 8/00  C6H5O,phenoxy    g 8/00  C6H6             g 8/00  C6H5OH,phenol  
  g 1/93  C6H10,cyclo-     n 4/87  C6H12,1-hexene   g 6/90  C6H12,cyclo-   
  n10/83  C6H13,n-hexyl    g 6/01  C6H14,n-hexane   g 7/01  C7H7,benzyl    
  g 1/93  C7H8             g12/00  C7H8O,cresol-mx  n 4/87  C7H14,1-heptene
  n10/83  C7H15,n-heptyl   n10/85  C7H16,n-heptane  n10/85  C7H16,2-methylh
  n 4/89  C8H8,styrene     n10/86  C8H10,ethylbenz  n 4/87  C8H16,1-octene 
  n10/83  C8H17,n-octyl    n 4/85  C8H18,n-octane   n 4/85  C8H18,isooctane
  n10/83  C9H19,n-nonyl    g 3/01  C10H8,naphthale  n10/83  C10H21,n-decyl 
  g 8/00  C12H9,o-bipheny  g 8/00  C12H10,biphenyl  g 6/97  *H             
  g 1/01  HCO              g 6/01  HCCO             g 4/02  HO2            
  tpis78  *H2              g 5/01  HCHO,formaldehy  g 6/01  HCOOH          
  g 8/89  H2O              g 6/99  H2O2             g 6/01  (HCOOH)2       
  g 5/97  *O               g 4/02  *OH              tpis89  *O2            
  g 8/01  O3               n 4/83  C(gr)            n 4/83  C(gr)          
  n 4/83  C(gr)            g11/99  H2O(cr)          g 8/01  H2O(L)         
  g 8/01  H2O(L)         

 O/F =   1.000000

                       EFFECTIVE FUEL     EFFECTIVE OXIDANT        MIXTURE
 ENTHALPY                  h(2)/R              h(1)/R               h0/R
 (KG-MOL)(K)/KG       -0.54579731E+03     -0.16563198E-01     -0.27290694E+03

 KG-FORM.WT./KG             bi(2)               bi(1)               b0i
  *C                   0.49920942E-01      0.00000000E+00      0.24960471E-01
  *H                   0.13312251E+00      0.00000000E+00      0.66561256E-01
  *O                   0.16640314E-01      0.62502344E-01      0.39571329E-01

 POINT ITN      T            C           H           O 
   1   20    2253.522     -11.070      -9.290     -21.594





           THEORETICAL ROCKET PERFORMANCE ASSUMING FROZEN COMPOSITION

 Pin =   145.0 PSIA
 CASE =                

             REACTANT                    WT FRACTION      ENERGY      TEMP
                                          (SEE NOTE)     KJ/KG-MOL      K  
 FUEL        C3H8O,2propanol              1.0000000   -272713.437    298.000
 FUEL        H2O(L)                       0.0000000   -285841.390    298.000
 OXIDANT     O2                           1.0000000        -4.407    298.000

 O/F=    1.00000  %FUEL= 50.000000  R,EQ.RATIO= 2.102572  PHI,EQ.RATIO= 2.396115

                 CHAMBER   THROAT     EXIT
 Pinf/P            1.0000   1.8114   18.519
 P, BAR            10.000   5.5206  0.53999
 T, K             2253.52  1992.62  1195.56
 RHO, KG/CU M    9.1565-1 5.7168-1 9.3197-2
 H, KJ/KG        -2269.09 -2879.72 -4645.14
 U, KJ/KG        -3361.21 -3845.40 -5224.54
 G, KJ/KG        -32774.3 -29853.2 -20829.1
 S, KJ/(KG)(K)    13.5367  13.5367  13.5367

 M, (1/n)          17.156   17.156   17.156
 Cp, KJ/(KG)(K)    2.3640   2.3154   2.0932
 GAMMAs            1.2579   1.2647   1.3013
 SON VEL,M/SEC     1172.1   1105.1    868.3
 MACH NUMBER        0.000    1.000    2.511

 PERFORMANCE PARAMETERS

 Ae/At                      1.0000   3.1096
 CSTAR, M/SEC               1582.9   1582.9
 CF                         0.6982   1.3772
 Ivac, M/SEC                1978.9   2445.7
 Isp, M/SEC                 1105.1   2179.9

 MOLE FRACTIONS

 *CO             0.38705   *CO2            0.04118   *H              0.00144
 *H2             0.36084   H2O             0.20935   *OH             0.00014

  * THERMODYNAMIC PROPERTIES FITTED TO 20000.K

    PRODUCTS WHICH WERE CONSIDERED BUT WHOSE MOLE FRACTIONS
    WERE LESS THAN 5.000000E-06 FOR ALL ASSIGNED CONDITIONS



 NOTE. WEIGHT FRACTION OF FUEL IN TOTAL FUELS AND OF OXIDANT IN TOTAL OXIDANTS






 O/F =   1.500000

                       EFFECTIVE FUEL     EFFECTIVE OXIDANT        MIXTURE
 ENTHALPY                  h(2)/R              h(1)/R               h0/R
 (KG-MOL)(K)/KG       -0.54579731E+03     -0.16563198E-01     -0.21832886E+03

 KG-FORM.WT./KG             bi(2)               bi(1)               b0i
  *C                   0.49920942E-01      0.00000000E+00      0.19968377E-01
  *H                   0.13312251E+00      0.00000000E+00      0.53249005E-01
  *O                   0.16640314E-01      0.62502344E-01      0.44157532E-01

 POINT ITN      T            C           H           O 
   1    8    3139.791     -15.383     -10.283     -17.030





           THEORETICAL ROCKET PERFORMANCE ASSUMING FROZEN COMPOSITION

 Pin =   145.0 PSIA
 CASE =                

             REACTANT                    WT FRACTION      ENERGY      TEMP
                                          (SEE NOTE)     KJ/KG-MOL      K  
 FUEL        C3H8O,2propanol              1.0000000   -272713.437    298.000
 FUEL        H2O(L)                       0.0000000   -285841.390    298.000
 OXIDANT     O2                           1.0000000        -4.407    298.000

 O/F=    1.50000  %FUEL= 40.000000  R,EQ.RATIO= 1.507359  PHI,EQ.RATIO= 1.597410

                 CHAMBER   THROAT     EXIT
 Pinf/P            1.0000   1.7846   18.519
 P, BAR            10.000   5.6035  0.53999
 T, K             3139.79  2829.31  1825.52
 RHO, KG/CU M    7.9374-1 4.9358-1 7.3718-2
 H, KJ/KG        -1815.30 -2508.38 -4664.74
 U, KJ/KG        -3075.15 -3643.65 -5397.24
 G, KJ/KG        -41945.2 -38670.0 -27996.9
 S, KJ/(KG)(K)    12.7811  12.7811  12.7811

 M, (1/n)          20.721   20.721   20.721
 Cp, KJ/(KG)(K)    2.2467   2.2169   2.0597
 GAMMAs            1.2174   1.2210   1.2420
 SON VEL,M/SEC     1238.5   1177.4    953.8
 MACH NUMBER        0.000    1.000    2.503

 PERFORMANCE PARAMETERS

 Ae/At                      1.0000   3.3021
 CSTAR, M/SEC               1720.8   1720.8
 CF                         0.6842   1.3873
 Ivac, M/SEC                2141.6   2694.1
 Isp, M/SEC                 1177.4   2387.2

 MOLE FRACTIONS

 *CO             0.31635   *CO2            0.09741   *H              0.02972
 HCO             0.00001   HO2             0.00001   *H2             0.15545
 H2O             0.36742   *O              0.00297   *OH             0.02791
 *O2             0.00275

  * THERMODYNAMIC PROPERTIES FITTED TO 20000.K

    PRODUCTS WHICH WERE CONSIDERED BUT WHOSE MOLE FRACTIONS
    WERE LESS THAN 5.000000E-06 FOR ALL ASSIGNED CONDITIONS



 NOTE. WEIGHT FRACTION OF FUEL IN TOTAL FUELS AND OF OXIDANT IN TOTAL OXIDANTS






 O/F =   2.000000

                       EFFECTIVE FUEL     EFFECTIVE OXIDANT        MIXTURE
 ENTHALPY                  h(2)/R              h(1)/R               h0/R
 (KG-MOL)(K)/KG       -0.54579731E+03     -0.16563198E-01     -0.18194348E+03

 KG-FORM.WT./KG             bi(2)               bi(1)               b0i
  *C                   0.49920942E-01      0.00000000E+00      0.16640314E-01
  *H                   0.13312251E+00      0.00000000E+00      0.44374171E-01
  *O                   0.16640314E-01      0.62502344E-01      0.47215001E-01

 POINT ITN      T            C           H           O 
   1    5    3313.808     -16.877     -10.759     -15.835





           THEORETICAL ROCKET PERFORMANCE ASSUMING FROZEN COMPOSITION

 Pin =   145.0 PSIA
 CASE =                

             REACTANT                    WT FRACTION      ENERGY      TEMP
                                          (SEE NOTE)     KJ/KG-MOL      K  
 FUEL        C3H8O,2propanol              1.0000000   -272713.437    298.000
 FUEL        H2O(L)                       0.0000000   -285841.390    298.000
 OXIDANT     O2                           1.0000000        -4.407    298.000

 O/F=    2.00000  %FUEL= 33.333333  R,EQ.RATIO= 1.174790  PHI,EQ.RATIO= 1.198058

                 CHAMBER   THROAT     EXIT
 Pinf/P            1.0000   1.7785   18.519
 P, BAR            10.000   5.6229  0.53999
 T, K             3313.81  2999.37  1969.26
 RHO, KG/CU M    8.3257-1 5.1722-1 7.5654-2
 H, KJ/KG        -1512.77 -2171.01 -4254.94
 U, KJ/KG        -2713.87 -3258.13 -4968.70
 G, KJ/KG        -41492.0 -38356.8 -28012.9
 S, KJ/(KG)(K)    12.0644  12.0644  12.0644

 M, (1/n)          22.940   22.940   22.940
 Cp, KJ/(KG)(K)    2.1055   2.0806   1.9489
 GAMMAs            1.2079   1.2110   1.2285
 SON VEL,M/SEC     1204.5   1147.4    936.4
 MACH NUMBER        0.000    1.000    2.501

 PERFORMANCE PARAMETERS

 Ae/At                      1.0000   3.3496
 CSTAR, M/SEC               1685.1   1685.1
 CF                         0.6809   1.3898
 Ivac, M/SEC                2094.9   2646.7
 Isp, M/SEC                 1147.4   2341.9

 MOLE FRACTIONS

 *CO             0.23055   *CO2            0.15117   *H              0.03237
 HO2             0.00007   *H2             0.07298   H2O             0.38215
 H2O2            0.00001   *O              0.01830   *OH             0.07521
 *O2             0.03720

  * THERMODYNAMIC PROPERTIES FITTED TO 20000.K

    PRODUCTS WHICH WERE CONSIDERED BUT WHOSE MOLE FRACTIONS
    WERE LESS THAN 5.000000E-06 FOR ALL ASSIGNED CONDITIONS



 NOTE. WEIGHT FRACTION OF FUEL IN TOTAL FUELS AND OF OXIDANT IN TOTAL OXIDANTS



