
 *******************************************************************************

         NASA-GLENN CHEMICAL EQUILIBRIUM PROGRAM CEA2, MAY 21, 2004
                   BY  BONNIE MCBRIDE AND SANFORD GORDON
      REFS: NASA RP-1311, PART I, 1994 AND NASA RP-1311, PART II, 1996

 *******************************************************************************



 problem  case=new-ethanol-95-n2o o/f=3.90,3.95,4.00,4.05,4.10,4.15,4.20,
       rocket  equilibrium
   p,bar=20.0,22.5,25.0,27.5,30.0,32.5,35.0,
   pi/p=12.56007,13.60674,14.65342,15.70009,16.74676,17.79343,18.84011,19.88678,2
 0.93345,21.98013,23.02680,
 react
   fuel=C2H5OH(L) wt=95  t,k=298
   fuel=H2O(L) wt=5  t,k=298
   oxid=N2O wt=100  t,k=298
 end

 OPTIONS: TP=F  HP=F  SP=F  TV=F  UV=F  SV=F  DETN=F  SHOCK=F  REFL=F  INCD=F
 RKT=T  FROZ=F  EQL=T  IONS=F  SIUNIT=T  DEBUGF=F  SHKDBG=F  DETDBG=F  TRNSPT=F

 TRACE= 0.00E+00  S/R= 0.000000E+00  H/R= 0.000000E+00  U/R= 0.000000E+00

 Pc,BAR =    20.000000    22.500000    25.000000    27.500000    30.000000    32.500000    35.000000

 Pc/P =    12.5601    13.6067    14.6534    15.7001    16.7468    17.7934    18.8401    19.8868    20.9335

 Pc/P =    21.9801    23.0268

 SUBSONIC AREA RATIOS =

 SUPERSONIC AREA RATIOS =

 NFZ=  1  Mdot/Ac= 0.000000E+00  Ac/At= 0.000000E+00

    REACTANT          WT.FRAC   (ENERGY/R),K   TEMP,K  DENSITY
        EXPLODED FORMULA
 F: C2H5OH(L)        0.950000  -0.333786E+05   298.00  0.0000
          C  2.00000  H  6.00000  O  1.00000
 F: H2O(L)           0.050000  -0.343786E+05   298.00  0.0000
          H  2.00000  O  1.00000
 O: N2O              1.000000   0.981347E+04   298.00  0.0000
          N  2.00000  O  1.00000

  SPECIES BEING CONSIDERED IN THIS SYSTEM
 (CONDENSED PHASE MAY HAVE NAME LISTED SEVERAL TIMES)
  LAST thermo.inp UPDATE:    9/09/04

  g 7/97  *C               tpis79  *CH              g 4/02  CH2            
  g 4/02  CH3              g11/00  CH2OH            g 7/00  CH3O           
  g 8/99  CH4              g 7/00  CH3OH            srd 01  CH3OOH         
  g 8/99  *CN              g12/99  CNN              tpis79  *CO            
  g 9/99  *CO2             tpis91  COOH             tpis91  *C2            
  g 6/01  C2H              g 1/91  C2H2,acetylene   g 5/01  C2H2,vinylidene
  g 4/02  CH2CO,ketene     g 3/02  O(CH)2O          srd 01  HO(CO)2OH      
  g 7/01  C2H3,vinyl       g 9/00  CH3CN            g 6/96  CH3CO,acetyl   
  g 1/00  C2H4             g 8/88  C2H4O,ethylen-o  g 8/88  CH3CHO,ethanal 
  g 6/00  CH3COOH          srd 01  OHCH2COOH        g 7/00  C2H5           
  g 7/00  C2H6             g 8/88  CH3N2CH3         g 8/88  C2H5OH         
  g 7/00  CH3OCH3          srd 01  CH3O2CH3         g 7/00  CCN            
  tpis91  CNC              srd 01  OCCN             tpis79  C2N2           
  g 8/00  C2O              tpis79  *C3              n 4/98  C3H3,1-propynl 
  n 4/98  C3H3,2-propynl   g 2/00  C3H4,allene      g 1/00  C3H4,propyne   
  g 5/90  C3H4,cyclo-      g 3/01  C3H5,allyl       g 2/00  C3H6,propylene 
  g 1/00  C3H6,cyclo-      g 6/01  C3H6O,propylox   g 6/97  C3H6O,acetone  
  g 1/02  C3H6O,propanal   g 7/01  C3H7,n-propyl    g 9/85  C3H7,i-propyl  
  g 2/00  C3H8             g 2/00  C3H8O,1propanol  g 2/00  C3H8O,2propanol
  srd 01  CNCOCN           g 7/88  C3O2             g tpis  *C4            
  g 7/01  C4H2,butadiyne   g 8/00  C4H4,1,3-cyclo-  n10/92  C4H6,butadiene 
  n10/93  C4H6,1butyne     n10/93  C4H6,2butyne     g 8/00  C4H6,cyclo-    
  n 4/88  C4H8,1-butene    n 4/88  C4H8,cis2-buten  n 4/88  C4H8,tr2-butene
  n 4/88  C4H8,isobutene   g 8/00  C4H8,cyclo-      g10/00  (CH3COOH)2     
  n10/84  C4H9,n-butyl     n10/84  C4H9,i-butyl     g 1/93  C4H9,s-butyl   
  g 1/93  C4H9,t-butyl     g12/00  C4H10,n-butane   g 8/00  C4H10,isobutane
  g 6/01  C4N2             g 8/00  *C5              g 5/90  C5H6,1,3cyclo- 
  g 1/93  C5H8,cyclo-      n 4/87  C5H10,1-pentene  g 2/01  C5H10,cyclo-   
  n10/84  C5H11,pentyl     g 1/93  C5H11,t-pentyl   n10/85  C5H12,n-pentane
  n10/85  C5H12,i-pentane  n10/85  CH3C(CH3)2CH3    g 2/93  C6H2           
  g11/00  C6H5,phenyl      g 8/00  C6H5O,phenoxy    g 8/00  C6H6           
  g 8/00  C6H5OH,phenol    g 1/93  C6H10,cyclo-     n 4/87  C6H12,1-hexene 
  g 6/90  C6H12,cyclo-     n10/83  C6H13,n-hexyl    g 6/01  C6H14,n-hexane 
  g 7/01  C7H7,benzyl      g 1/93  C7H8             g12/00  C7H8O,cresol-mx
  n 4/87  C7H14,1-heptene  n10/83  C7H15,n-heptyl   n10/85  C7H16,n-heptane
  n10/85  C7H16,2-methylh  n 4/89  C8H8,styrene     n10/86  C8H10,ethylbenz
  n 4/87  C8H16,1-octene   n10/83  C8H17,n-octyl    n 4/85  C8H18,n-octane 
  n 4/85  C8H18,isooctane  n10/83  C9H19,n-nonyl    g 3/01  C10H8,naphthale
  n10/83  C10H21,n-decyl   g 8/00  C12H9,o-bipheny  g 8/00  C12H10,biphenyl
  g 6/97  *H               g 6/01  HCN              g 1/01  HCO            
  tpis89  HCCN             g 6/01  HCCO             g 6/01  HNC            
  g 7/00  HNCO             g10/01  HNO              tpis89  HNO2           
  g 5/99  HNO3             g 4/02  HO2              tpis78  *H2            
  g 5/01  HCHO,formaldehy  g 6/01  HCOOH            g 8/89  H2O            
  g 6/99  H2O2             g 6/01  (HCOOH)2         g 5/97  *N             
  g 6/01  NCO              g 4/99  *NH              g 3/01  NH2            
  tpis89  NH3              tpis89  NH2OH            tpis89  *NO            
  g 4/99  NO2              j12/64  NO3              tpis78  *N2            
  g 6/01  NCN              g 5/99  N2H2             tpis89  NH2NO2         
  g 4/99  N2H4             g 4/99  N2O              g 4/99  N2O3           
  tpis89  N2O4             g 4/99  N2O5             tpis89  N3             
  g 4/99  N3H              g 5/97  *O               g 4/02  *OH            
  tpis89  *O2              g 8/01  O3               n 4/83  C(gr)          
  n 4/83  C(gr)            n 4/83  C(gr)            g11/99  H2O(cr)        
  g 8/01  H2O(L)           g 8/01  H2O(L)         

 O/F =   3.900000

                       EFFECTIVE FUEL     EFFECTIVE OXIDANT        MIXTURE
 ENTHALPY                  h(2)/R              h(1)/R               h0/R
 (KG-MOL)(K)/KG       -0.78373206E+03      0.22296858E+03      0.17519469E+02

 KG-FORM.WT./KG             bi(2)               bi(1)               b0i
  *C                   0.41242985E-01      0.00000000E+00      0.84169358E-02
  *H                   0.12927980E+00      0.00000000E+00      0.26383633E-01
  *O                   0.23396914E-01      0.22720663E-01      0.22858674E-01
  *N                   0.00000000E+00      0.45441326E-01      0.36167586E-01

 POINT ITN      T            C           H           O           N 

   1   23    3027.842     -15.917     -10.359     -16.702     -13.115

 Pinf/Pt = 1.747512
   2    4    2818.196     -16.012     -10.520     -17.258     -13.256

 Pinf/Pt = 1.755963
   2    2    2816.352     -16.012     -10.521     -17.263     -13.257

 Pinf/Pt = 1.756059
   2    1    2816.331     -16.012     -10.521     -17.263     -13.257

   3    5    2031.514     -15.068     -10.889     -20.938     -13.658

   4    3    2000.980     -14.990     -10.900     -21.150     -13.672

   5    3    1972.996     -14.915     -10.910     -21.350     -13.686

   6    3    1947.197     -14.843     -10.919     -21.541     -13.698

   7    3    1923.292     -14.774     -10.928     -21.722     -13.710

   8    3    1901.040     -14.708     -10.936     -21.895     -13.720






              THEORETICAL ROCKET PERFORMANCE ASSUMING EQUILIBRIUM

           COMPOSITION DURING EXPANSION FROM INFINITE AREA COMBUSTOR

 Pin =   290.1 PSIA
 CASE = new-ethanol-95-

             REACTANT                    WT FRACTION      ENERGY      TEMP
                                          (SEE NOTE)     KJ/KG-MOL      K  
 FUEL        C2H5OH(L)                    0.9500000   -277526.835    298.000
 FUEL        H2O(L)                       0.0500000   -285841.390    298.000
 OXIDANT     N2O                          1.0000000     81594.206    298.000

 O/F=    3.90000  %FUEL= 20.408163  R,EQ.RATIO= 1.313536  PHI,EQ.RATIO= 1.396323

                 CHAMBER   THROAT     EXIT     EXIT     EXIT     EXIT     EXIT     EXIT
 Pinf/P            1.0000   1.7561   12.560   13.607   14.653   15.700   16.747   17.793
 P, BAR            20.000   11.389   1.5923   1.4699   1.3649   1.2739   1.1943   1.1240
 T, K             3027.84  2816.33  2031.51  2000.98  1973.00  1947.20  1923.29  1901.04
 RHO, KG/CU M    1.9661 0 1.2131 0 2.3743-1 2.2252-1 2.0957-1 1.9819-1 1.8812-1 1.7913-1
 H, KJ/KG          145.67  -404.98 -1984.98 -2038.25 -2086.86 -2131.50 -2172.73 -2210.99
 U, KJ/KG         -871.60 -1343.81 -2655.64 -2698.80 -2738.14 -2774.24 -2807.56 -2838.46
 G, KJ/KG        -31805.9 -30124.6 -23422.7 -23153.8 -22907.1 -22679.5 -22468.4 -22271.9
 S, KJ/(KG)(K)    10.5526  10.5526  10.5526  10.5526  10.5526  10.5526  10.5526  10.5526

 M, (1/n)          24.748   24.942   25.186   25.187   25.188   25.189   25.190   25.190
 (dLV/dLP)t      -1.00973 -1.00553 -1.00016 -1.00013 -1.00011 -1.00009 -1.00008 -1.00007
 (dLV/dLT)p        1.2088   1.1275   1.0046   1.0039   1.0033   1.0028   1.0024   1.0021
 Cp, KJ/(KG)(K)    3.3140   2.7688   1.7573   1.7474   1.7391   1.7321   1.7261   1.7209
 GAMMAs            1.1606   1.1731   1.2337   1.2350   1.2360   1.2369   1.2377   1.2385
 SON VEL,M/SEC     1086.6   1049.4    909.6    903.2    897.2    891.6    886.4    881.5
 MACH NUMBER        0.000    1.000    2.269    2.314    2.355    2.393    2.429    2.463

 PERFORMANCE PARAMETERS

 Ae/At                     1.00000   2.5975   2.7375   2.8749   3.0099   3.1428   3.2736
 CSTAR, M/SEC               1571.0   1571.0   1571.0   1571.0   1571.0   1571.0   1571.0
 CF                         0.6680   1.3140   1.3303   1.3451   1.3584   1.3707   1.3819
 Ivac, M/SEC                1944.0   2389.2   2406.0   2421.3   2435.3   2448.1   2460.0
 Isp, M/SEC                 1049.4   2064.3   2089.9   2113.1   2134.1   2153.3   2171.0


 MOLE FRACTIONS

 *CO              0.13140  0.12691  0.11425  0.11362  0.11302  0.11245  0.11190  0.11137
 *CO2             0.07690  0.08303  0.09774  0.09838  0.09898  0.09957  0.10012  0.10066
 *H               0.00932  0.00617  0.00041  0.00035  0.00030  0.00026  0.00023  0.00020
 HO2              0.00001  0.00000  0.00000  0.00000  0.00000  0.00000  0.00000  0.00000
 *H2              0.05859  0.05762  0.06617  0.06681  0.06743  0.06801  0.06857  0.06911
 H2O              0.25574  0.26393  0.26577  0.26520  0.26464  0.26410  0.26357  0.26306
 *NO              0.00388  0.00195  0.00002  0.00001  0.00001  0.00001  0.00001  0.00000
 *N2              0.44559  0.45007  0.45545  0.45547  0.45549  0.45551  0.45552  0.45553
 *O               0.00133  0.00054  0.00000  0.00000  0.00000  0.00000  0.00000  0.00000
 *OH              0.01493  0.00878  0.00020  0.00016  0.00013  0.00010  0.00009  0.00007
 *O2              0.00230  0.00099  0.00000  0.00000  0.00000  0.00000  0.00000  0.00000

  * THERMODYNAMIC PROPERTIES FITTED TO 20000.K

    PRODUCTS WHICH WERE CONSIDERED BUT WHOSE MOLE FRACTIONS
    WERE LESS THAN 5.000000E-06 FOR ALL ASSIGNED CONDITIONS

 *C              *CH             CH2             CH3             CH2OH          
 CH3O            CH4             CH3OH           CH3OOH          *CN            
 CNN             COOH            *C2             C2H             C2H2,acetylene 
 C2H2,vinylidene CH2CO,ketene    O(CH)2O         HO(CO)2OH       C2H3,vinyl     
 CH3CN           CH3CO,acetyl    C2H4            C2H4O,ethylen-o CH3CHO,ethanal 
 CH3COOH         OHCH2COOH       C2H5            C2H6            CH3N2CH3       
 C2H5OH          CH3OCH3         CH3O2CH3        CCN             CNC            
 OCCN            C2N2            C2O             *C3             C3H3,1-propynl 
 C3H3,2-propynl  C3H4,allene     C3H4,propyne    C3H4,cyclo-     C3H5,allyl     
 C3H6,propylene  C3H6,cyclo-     C3H6O,propylox  C3H6O,acetone   C3H6O,propanal 
 C3H7,n-propyl   C3H7,i-propyl   C3H8            C3H8O,1propanol C3H8O,2propanol
 CNCOCN          C3O2            *C4             C4H2,butadiyne  C4H4,1,3-cyclo-
 C4H6,butadiene  C4H6,1butyne    C4H6,2butyne    C4H6,cyclo-     C4H8,1-butene  
 C4H8,cis2-buten C4H8,tr2-butene C4H8,isobutene  C4H8,cyclo-     (CH3COOH)2     
 C4H9,n-butyl    C4H9,i-butyl    C4H9,s-butyl    C4H9,t-butyl    C4H10,n-butane 
 C4H10,isobutane C4N2            *C5             C5H6,1,3cyclo-  C5H8,cyclo-    
 C5H10,1-pentene C5H10,cyclo-    C5H11,pentyl    C5H11,t-pentyl  C5H12,n-pentane
 C5H12,i-pentane CH3C(CH3)2CH3   C6H2            C6H5,phenyl     C6H5O,phenoxy  
 C6H6            C6H5OH,phenol   C6H10,cyclo-    C6H12,1-hexene  C6H12,cyclo-   
 C6H13,n-hexyl   C6H14,n-hexane  C7H7,benzyl     C7H8            C7H8O,cresol-mx
 C7H14,1-heptene C7H15,n-heptyl  C7H16,n-heptane C7H16,2-methylh C8H8,styrene   
 C8H10,ethylbenz C8H16,1-octene  C8H17,n-octyl   C8H18,n-octane  C8H18,isooctane
 C9H19,n-nonyl   C10H8,naphthale C10H21,n-decyl  C12H9,o-bipheny C12H10,biphenyl
 HCN             HCO             HCCN            HCCO            HNC            
 HNCO            HNO             HNO2            HNO3            HCHO,formaldehy
 HCOOH           H2O2            (HCOOH)2        *N              NCO            
 *NH             NH2             NH3             NH2OH           NO2            
 NO3             NCN             N2H2            NH2NO2          N2H4           
 N2O             N2O3            N2O4            N2O5            N3             
 N3H             O3              C(gr)           H2O(cr)         H2O(L)         

 NOTE. WEIGHT FRACTION OF FUEL IN TOTAL FUELS AND OF OXIDANT IN TOTAL OXIDANTS





   3    3    1880.244     -14.645     -10.944     -22.061     -13.731

   4    3    1860.738     -14.583     -10.951     -22.220     -13.741

   5    3    1842.383     -14.524     -10.958     -22.373     -13.750

   6    3    1825.060     -14.466     -10.964     -22.521     -13.759

   7    2    1808.668     -14.411     -10.970     -22.663     -13.767






              THEORETICAL ROCKET PERFORMANCE ASSUMING EQUILIBRIUM

           COMPOSITION DURING EXPANSION FROM INFINITE AREA COMBUSTOR

 Pin =   290.1 PSIA
 CASE = new-ethanol-95-

             REACTANT                    WT FRACTION      ENERGY      TEMP
                                          (SEE NOTE)     KJ/KG-MOL      K  
 FUEL        C2H5OH(L)                    0.9500000   -277526.835    298.000
 FUEL        H2O(L)                       0.0500000   -285841.390    298.000
 OXIDANT     N2O                          1.0000000     81594.206    298.000

 O/F=    3.90000  %FUEL= 20.408163  R,EQ.RATIO= 1.313536  PHI,EQ.RATIO= 1.396323

                 CHAMBER   THROAT     EXIT     EXIT     EXIT     EXIT     EXIT
 Pinf/P            1.0000   1.7561   18.840   19.887   20.933   21.980   23.027
 P, BAR            20.000   11.389   1.0616   1.0057  0.95541  0.90991  0.86855
 T, K             3027.84  2816.33  1880.24  1860.74  1842.38  1825.06  1808.67
 RHO, KG/CU M    1.9661 0 1.2131 0 1.7105-1 1.6375-1 1.5712-1 1.5106-1 1.4550-1
 H, KJ/KG          145.67  -404.98 -2246.66 -2280.04 -2311.38 -2340.91 -2368.81
 U, KJ/KG         -871.60 -1343.81 -2867.26 -2894.19 -2919.47 -2943.27 -2965.75
 G, KJ/KG        -31805.9 -30124.6 -22088.1 -21915.6 -21753.3 -21600.0 -21454.9
 S, KJ/(KG)(K)    10.5526  10.5526  10.5526  10.5526  10.5526  10.5526  10.5526

 M, (1/n)          24.748   24.942   25.191   25.191   25.191   25.192   25.192
 (dLV/dLP)t      -1.00973 -1.00553 -1.00006 -1.00005 -1.00005 -1.00004 -1.00004
 (dLV/dLT)p        1.2088   1.1275   1.0018   1.0016   1.0014   1.0013   1.0011
 Cp, KJ/(KG)(K)    3.3140   2.7688   1.7163   1.7122   1.7086   1.7053   1.7023
 GAMMAs            1.1606   1.1731   1.2391   1.2397   1.2402   1.2407   1.2411
 SON VEL,M/SEC     1086.6   1049.4    876.9    872.6    868.4    864.5    860.8
 MACH NUMBER        0.000    1.000    2.494    2.524    2.553    2.580    2.605

 PERFORMANCE PARAMETERS

 Ae/At                     1.00000   3.4025   3.5297   3.6552   3.7792   3.9017
 CSTAR, M/SEC               1571.0   1571.0   1571.0   1571.0   1571.0   1571.0
 CF                         0.6680   1.3924   1.4020   1.4111   1.4195   1.4275
 Ivac, M/SEC                1944.0   2471.1   2481.4   2491.1   2500.2   2508.7
 Isp, M/SEC                 1049.4   2187.4   2202.6   2216.8   2230.1   2242.5


 MOLE FRACTIONS

 *CO              0.13140  0.12691  0.11086  0.11036  0.10988  0.10942  0.10897
 *CO2             0.07690  0.08303  0.10117  0.10167  0.10215  0.10262  0.10307
 *H               0.00932  0.00617  0.00018  0.00016  0.00014  0.00012  0.00011
 HO2              0.00001  0.00000  0.00000  0.00000  0.00000  0.00000  0.00000
 *H2              0.05859  0.05762  0.06963  0.07013  0.07062  0.07109  0.07154
 H2O              0.25574  0.26393  0.26256  0.26208  0.26161  0.26116  0.26071
 *NO              0.00388  0.00195  0.00000  0.00000  0.00000  0.00000  0.00000
 *N2              0.44559  0.45007  0.45554  0.45555  0.45555  0.45556  0.45556
 *O               0.00133  0.00054  0.00000  0.00000  0.00000  0.00000  0.00000
 *OH              0.01493  0.00878  0.00006  0.00005  0.00004  0.00004  0.00003
 *O2              0.00230  0.00099  0.00000  0.00000  0.00000  0.00000  0.00000

  * THERMODYNAMIC PROPERTIES FITTED TO 20000.K

    PRODUCTS WHICH WERE CONSIDERED BUT WHOSE MOLE FRACTIONS
    WERE LESS THAN 5.000000E-06 FOR ALL ASSIGNED CONDITIONS

 *C              *CH             CH2             CH3             CH2OH          
 CH3O            CH4             CH3OH           CH3OOH          *CN            
 CNN             COOH            *C2             C2H             C2H2,acetylene 
 C2H2,vinylidene CH2CO,ketene    O(CH)2O         HO(CO)2OH       C2H3,vinyl     
 CH3CN           CH3CO,acetyl    C2H4            C2H4O,ethylen-o CH3CHO,ethanal 
 CH3COOH         OHCH2COOH       C2H5            C2H6            CH3N2CH3       
 C2H5OH          CH3OCH3         CH3O2CH3        CCN             CNC            
 OCCN            C2N2            C2O             *C3             C3H3,1-propynl 
 C3H3,2-propynl  C3H4,allene     C3H4,propyne    C3H4,cyclo-     C3H5,allyl     
 C3H6,propylene  C3H6,cyclo-     C3H6O,propylox  C3H6O,acetone   C3H6O,propanal 
 C3H7,n-propyl   C3H7,i-propyl   C3H8            C3H8O,1propanol C3H8O,2propanol
 CNCOCN          C3O2            *C4             C4H2,butadiyne  C4H4,1,3-cyclo-
 C4H6,butadiene  C4H6,1butyne    C4H6,2butyne    C4H6,cyclo-     C4H8,1-butene  
 C4H8,cis2-buten C4H8,tr2-butene C4H8,isobutene  C4H8,cyclo-     (CH3COOH)2     
 C4H9,n-butyl    C4H9,i-butyl    C4H9,s-butyl    C4H9,t-butyl    C4H10,n-butane 
 C4H10,isobutane C4N2            *C5             C5H6,1,3cyclo-  C5H8,cyclo-    
 C5H10,1-pentene C5H10,cyclo-    C5H11,pentyl    C5H11,t-pentyl  C5H12,n-pentane
 C5H12,i-pentane CH3C(CH3)2CH3   C6H2            C6H5,phenyl     C6H5O,phenoxy  
 C6H6            C6H5OH,phenol   C6H10,cyclo-    C6H12,1-hexene  C6H12,cyclo-   
 C6H13,n-hexyl   C6H14,n-hexane  C7H7,benzyl     C7H8            C7H8O,cresol-mx
 C7H14,1-heptene C7H15,n-heptyl  C7H16,n-heptane C7H16,2-methylh C8H8,styrene   
 C8H10,ethylbenz C8H16,1-octene  C8H17,n-octyl   C8H18,n-octane  C8H18,isooctane
 C9H19,n-nonyl   C10H8,naphthale C10H21,n-decyl  C12H9,o-bipheny C12H10,biphenyl
 HCN             HCO             HCCN            HCCO            HNC            
 HNCO            HNO             HNO2            HNO3            HCHO,formaldehy
 HCOOH           H2O2            (HCOOH)2        *N              NCO            
 *NH             NH2             NH3             NH2OH           NO2            
 NO3             NCN             N2H2            NH2NO2          N2H4           
 N2O             N2O3            N2O4            N2O5            N3             
 N3H             O3              C(gr)           H2O(cr)         H2O(L)         

 NOTE. WEIGHT FRACTION OF FUEL IN TOTAL FUELS AND OF OXIDANT IN TOTAL OXIDANTS






 POINT ITN      T            C           H           O           N 

   1    3    3035.326     -15.824     -10.306     -16.676     -13.060

 Pinf/Pt = 1.748322
   2    4    2822.750     -15.912     -10.465     -17.240     -13.200

 Pinf/Pt = 1.756965
   2    2    2820.840     -15.912     -10.466     -17.245     -13.201

 Pinf/Pt = 1.757064
   2    1    2820.819     -15.912     -10.466     -17.245     -13.201

   3    5    2030.934     -14.947     -10.829     -20.942     -13.599

   4    3    2000.371     -14.869     -10.840     -21.154     -13.613

   5    3    1972.365     -14.794     -10.850     -21.355     -13.626

   6    3    1946.551     -14.722     -10.860     -21.545     -13.639

   7    3    1922.634     -14.653     -10.868     -21.727     -13.650

   8    3    1900.374     -14.587     -10.876     -21.900     -13.661






              THEORETICAL ROCKET PERFORMANCE ASSUMING EQUILIBRIUM

           COMPOSITION DURING EXPANSION FROM INFINITE AREA COMBUSTOR

 Pin =   326.3 PSIA
 CASE = new-ethanol-95-

             REACTANT                    WT FRACTION      ENERGY      TEMP
                                          (SEE NOTE)     KJ/KG-MOL      K  
 FUEL        C2H5OH(L)                    0.9500000   -277526.835    298.000
 FUEL        H2O(L)                       0.0500000   -285841.390    298.000
 OXIDANT     N2O                          1.0000000     81594.206    298.000

 O/F=    3.90000  %FUEL= 20.408163  R,EQ.RATIO= 1.313536  PHI,EQ.RATIO= 1.396323

                 CHAMBER   THROAT     EXIT     EXIT     EXIT     EXIT     EXIT     EXIT
 Pinf/P            1.0000   1.7571   12.560   13.607   14.653   15.700   16.747   17.793
 P, BAR            22.500   12.805   1.7914   1.6536   1.5355   1.4331   1.3435   1.2645
 T, K             3035.33  2820.82  2030.93  2000.37  1972.37  1946.55  1922.63  1900.37
 RHO, KG/CU M    2.2077 0 1.3624 0 2.6719-1 2.5042-1 2.3584-1 2.2305-1 2.1171-1 2.0160-1
 H, KJ/KG          145.67  -406.38 -1986.35 -2039.61 -2088.20 -2132.83 -2174.04 -2212.29
 U, KJ/KG         -873.48 -1346.29 -2656.81 -2699.94 -2739.26 -2775.35 -2808.65 -2839.54
 G, KJ/KG        -31764.8 -30061.7 -23337.6 -23069.6 -22823.7 -22597.0 -22386.7 -22191.0
 S, KJ/(KG)(K)    10.5130  10.5130  10.5130  10.5130  10.5130  10.5130  10.5130  10.5130

 M, (1/n)          24.763   24.953   25.186   25.187   25.188   25.189   25.190   25.190
 (dLV/dLP)t      -1.00939 -1.00528 -1.00015 -1.00012 -1.00010 -1.00009 -1.00008 -1.00006
 (dLV/dLT)p        1.2013   1.1217   1.0044   1.0036   1.0031   1.0026   1.0023   1.0020
 Cp, KJ/(KG)(K)    3.2566   2.7226   1.7544   1.7449   1.7370   1.7303   1.7245   1.7194
 GAMMAs            1.1620   1.1747   1.2341   1.2352   1.2363   1.2372   1.2379   1.2386
 SON VEL,M/SEC     1088.2   1050.8    909.6    903.1    897.2    891.6    886.3    881.4
 MACH NUMBER        0.000    1.000    2.270    2.315    2.356    2.394    2.430    2.464

 PERFORMANCE PARAMETERS

 Ae/At                     1.00000   2.5946   2.7345   2.8717   3.0066   3.1393   3.2700
 CSTAR, M/SEC               1571.7   1571.7   1571.7   1571.7   1571.7   1571.7   1571.7
 CF                         0.6685   1.3138   1.3301   1.3448   1.3582   1.3704   1.3817
 Ivac, M/SEC                1945.3   2389.6   2406.4   2421.7   2435.7   2448.6   2460.5
 Isp, M/SEC                 1050.8   2065.0   2090.6   2113.7   2134.7   2153.9   2171.6


 MOLE FRACTIONS

 *CO              0.13128  0.12683  0.11424  0.11361  0.11301  0.11244  0.11188  0.11135
 *CO2             0.07715  0.08319  0.09775  0.09839  0.09900  0.09958  0.10014  0.10067
 *H               0.00897  0.00591  0.00039  0.00033  0.00028  0.00024  0.00021  0.00019
 HO2              0.00001  0.00000  0.00000  0.00000  0.00000  0.00000  0.00000  0.00000
 *H2              0.05840  0.05751  0.06619  0.06683  0.06744  0.06803  0.06859  0.06913
 H2O              0.25650  0.26447  0.26578  0.26520  0.26464  0.26409  0.26356  0.26305
 *NO              0.00381  0.00189  0.00002  0.00001  0.00001  0.00001  0.00001  0.00000
 *N2              0.44590  0.45030  0.45546  0.45548  0.45550  0.45551  0.45553  0.45554
 *O               0.00125  0.00050  0.00000  0.00000  0.00000  0.00000  0.00000  0.00000
 *OH              0.01455  0.00847  0.00018  0.00015  0.00012  0.00010  0.00008  0.00007
 *O2              0.00217  0.00092  0.00000  0.00000  0.00000  0.00000  0.00000  0.00000

  * THERMODYNAMIC PROPERTIES FITTED TO 20000.K

    PRODUCTS WHICH WERE CONSIDERED BUT WHOSE MOLE FRACTIONS
    WERE LESS THAN 5.000000E-06 FOR ALL ASSIGNED CONDITIONS

 *C              *CH             CH2             CH3             CH2OH          
 CH3O            CH4             CH3OH           CH3OOH          *CN            
 CNN             COOH            *C2             C2H             C2H2,acetylene 
 C2H2,vinylidene CH2CO,ketene    O(CH)2O         HO(CO)2OH       C2H3,vinyl     
 CH3CN           CH3CO,acetyl    C2H4            C2H4O,ethylen-o CH3CHO,ethanal 
 CH3COOH         OHCH2COOH       C2H5            C2H6            CH3N2CH3       
 C2H5OH          CH3OCH3         CH3O2CH3        CCN             CNC            
 OCCN            C2N2            C2O             *C3             C3H3,1-propynl 
 C3H3,2-propynl  C3H4,allene     C3H4,propyne    C3H4,cyclo-     C3H5,allyl     
 C3H6,propylene  C3H6,cyclo-     C3H6O,propylox  C3H6O,acetone   C3H6O,propanal 
 C3H7,n-propyl   C3H7,i-propyl   C3H8            C3H8O,1propanol C3H8O,2propanol
 CNCOCN          C3O2            *C4             C4H2,butadiyne  C4H4,1,3-cyclo-
 C4H6,butadiene  C4H6,1butyne    C4H6,2butyne    C4H6,cyclo-     C4H8,1-butene  
 C4H8,cis2-buten C4H8,tr2-butene C4H8,isobutene  C4H8,cyclo-     (CH3COOH)2     
 C4H9,n-butyl    C4H9,i-butyl    C4H9,s-butyl    C4H9,t-butyl    C4H10,n-butane 
 C4H10,isobutane C4N2            *C5             C5H6,1,3cyclo-  C5H8,cyclo-    
 C5H10,1-pentene C5H10,cyclo-    C5H11,pentyl    C5H11,t-pentyl  C5H12,n-pentane
 C5H12,i-pentane CH3C(CH3)2CH3   C6H2            C6H5,phenyl     C6H5O,phenoxy  
 C6H6            C6H5OH,phenol   C6H10,cyclo-    C6H12,1-hexene  C6H12,cyclo-   
 C6H13,n-hexyl   C6H14,n-hexane  C7H7,benzyl     C7H8            C7H8O,cresol-mx
 C7H14,1-heptene C7H15,n-heptyl  C7H16,n-heptane C7H16,2-methylh C8H8,styrene   
 C8H10,ethylbenz C8H16,1-octene  C8H17,n-octyl   C8H18,n-octane  C8H18,isooctane
 C9H19,n-nonyl   C10H8,naphthale C10H21,n-decyl  C12H9,o-bipheny C12H10,biphenyl
 HCN             HCO             HCCN            HCCO            HNC            
 HNCO            HNO             HNO2            HNO3            HCHO,formaldehy
 HCOOH           H2O2            (HCOOH)2        *N              NCO            
 *NH             NH2             NH3             NH2OH           NO2            
 NO3             NCN             N2H2            NH2NO2          N2H4           
 N2O             N2O3            N2O4            N2O5            N3             
 N3H             O3              C(gr)           H2O(cr)         H2O(L)         

 NOTE. WEIGHT FRACTION OF FUEL IN TOTAL FUELS AND OF OXIDANT IN TOTAL OXIDANTS





   3    3    1879.571     -14.523     -10.884     -22.066     -13.671

   4    3    1860.061     -14.461     -10.891     -22.226     -13.681

   5    3    1841.703     -14.402     -10.898     -22.379     -13.690

   6    3    1824.378     -14.344     -10.904     -22.527     -13.699

   7    2    1807.985     -14.289     -10.910     -22.669     -13.708






              THEORETICAL ROCKET PERFORMANCE ASSUMING EQUILIBRIUM

           COMPOSITION DURING EXPANSION FROM INFINITE AREA COMBUSTOR

 Pin =   326.3 PSIA
 CASE = new-ethanol-95-

             REACTANT                    WT FRACTION      ENERGY      TEMP
                                          (SEE NOTE)     KJ/KG-MOL      K  
 FUEL        C2H5OH(L)                    0.9500000   -277526.835    298.000
 FUEL        H2O(L)                       0.0500000   -285841.390    298.000
 OXIDANT     N2O                          1.0000000     81594.206    298.000

 O/F=    3.90000  %FUEL= 20.408163  R,EQ.RATIO= 1.313536  PHI,EQ.RATIO= 1.396323

                 CHAMBER   THROAT     EXIT     EXIT     EXIT     EXIT     EXIT
 Pinf/P            1.0000   1.7571   18.840   19.887   20.933   21.980   23.027
 P, BAR            22.500   12.805   1.1943   1.1314   1.0748   1.0237  0.97712
 T, K             3035.33  2820.82  1879.57  1860.06  1841.70  1824.38  1807.99
 RHO, KG/CU M    2.2077 0 1.3624 0 1.9251-1 1.8429-1 1.7682-1 1.7000-1 1.6375-1
 H, KJ/KG          145.67  -406.38 -2247.94 -2281.31 -2312.64 -2342.16 -2370.05
 U, KJ/KG         -873.48 -1346.29 -2868.32 -2895.23 -2920.50 -2944.30 -2966.77
 G, KJ/KG        -31764.8 -30061.7 -22007.9 -21836.2 -21674.5 -21521.9 -21377.4
 S, KJ/(KG)(K)    10.5130  10.5130  10.5130  10.5130  10.5130  10.5130  10.5130

 M, (1/n)          24.763   24.953   25.191   25.191   25.191   25.192   25.192
 (dLV/dLP)t      -1.00939 -1.00528 -1.00006 -1.00005 -1.00004 -1.00004 -1.00003
 (dLV/dLT)p        1.2013   1.1217   1.0017   1.0015   1.0013   1.0012   1.0011
 Cp, KJ/(KG)(K)    3.2566   2.7226   1.7150   1.7111   1.7076   1.7044   1.7015
 GAMMAs            1.1620   1.1747   1.2393   1.2398   1.2403   1.2408   1.2412
 SON VEL,M/SEC     1088.2   1050.8    876.8    872.4    868.3    864.4    860.6
 MACH NUMBER        0.000    1.000    2.495    2.525    2.554    2.581    2.606

 PERFORMANCE PARAMETERS

 Ae/At                     1.00000   3.3988   3.5258   3.6512   3.7751   3.8975
 CSTAR, M/SEC               1571.7   1571.7   1571.7   1571.7   1571.7   1571.7
 CF                         0.6685   1.3921   1.4018   1.4108   1.4192   1.4272
 Ivac, M/SEC                1945.3   2471.5   2481.8   2491.5   2500.6   2509.1
 Isp, M/SEC                 1050.8   2188.0   2203.2   2217.3   2230.6   2243.1


 MOLE FRACTIONS

 *CO              0.13128  0.12683  0.11084  0.11035  0.10987  0.10940  0.10895
 *CO2             0.07715  0.08319  0.10119  0.10169  0.10217  0.10264  0.10309
 *H               0.00897  0.00591  0.00016  0.00015  0.00013  0.00012  0.00010
 HO2              0.00001  0.00000  0.00000  0.00000  0.00000  0.00000  0.00000
 *H2              0.05840  0.05751  0.06965  0.07015  0.07064  0.07111  0.07156
 H2O              0.25650  0.26447  0.26255  0.26207  0.26160  0.26114  0.26070
 *NO              0.00381  0.00189  0.00000  0.00000  0.00000  0.00000  0.00000
 *N2              0.44590  0.45030  0.45554  0.45555  0.45556  0.45556  0.45557
 *O               0.00125  0.00050  0.00000  0.00000  0.00000  0.00000  0.00000
 *OH              0.01455  0.00847  0.00006  0.00005  0.00004  0.00003  0.00003
 *O2              0.00217  0.00092  0.00000  0.00000  0.00000  0.00000  0.00000

  * THERMODYNAMIC PROPERTIES FITTED TO 20000.K

    PRODUCTS WHICH WERE CONSIDERED BUT WHOSE MOLE FRACTIONS
    WERE LESS THAN 5.000000E-06 FOR ALL ASSIGNED CONDITIONS

 *C              *CH             CH2             CH3             CH2OH          
 CH3O            CH4             CH3OH           CH3OOH          *CN            
 CNN             COOH            *C2             C2H             C2H2,acetylene 
 C2H2,vinylidene CH2CO,ketene    O(CH)2O         HO(CO)2OH       C2H3,vinyl     
 CH3CN           CH3CO,acetyl    C2H4            C2H4O,ethylen-o CH3CHO,ethanal 
 CH3COOH         OHCH2COOH       C2H5            C2H6            CH3N2CH3       
 C2H5OH          CH3OCH3         CH3O2CH3        CCN             CNC            
 OCCN            C2N2            C2O             *C3             C3H3,1-propynl 
 C3H3,2-propynl  C3H4,allene     C3H4,propyne    C3H4,cyclo-     C3H5,allyl     
 C3H6,propylene  C3H6,cyclo-     C3H6O,propylox  C3H6O,acetone   C3H6O,propanal 
 C3H7,n-propyl   C3H7,i-propyl   C3H8            C3H8O,1propanol C3H8O,2propanol
 CNCOCN          C3O2            *C4             C4H2,butadiyne  C4H4,1,3-cyclo-
 C4H6,butadiene  C4H6,1butyne    C4H6,2butyne    C4H6,cyclo-     C4H8,1-butene  
 C4H8,cis2-buten C4H8,tr2-butene C4H8,isobutene  C4H8,cyclo-     (CH3COOH)2     
 C4H9,n-butyl    C4H9,i-butyl    C4H9,s-butyl    C4H9,t-butyl    C4H10,n-butane 
 C4H10,isobutane C4N2            *C5             C5H6,1,3cyclo-  C5H8,cyclo-    
 C5H10,1-pentene C5H10,cyclo-    C5H11,pentyl    C5H11,t-pentyl  C5H12,n-pentane
 C5H12,i-pentane CH3C(CH3)2CH3   C6H2            C6H5,phenyl     C6H5O,phenoxy  
 C6H6            C6H5OH,phenol   C6H10,cyclo-    C6H12,1-hexene  C6H12,cyclo-   
 C6H13,n-hexyl   C6H14,n-hexane  C7H7,benzyl     C7H8            C7H8O,cresol-mx
 C7H14,1-heptene C7H15,n-heptyl  C7H16,n-heptane C7H16,2-methylh C8H8,styrene   
 C8H10,ethylbenz C8H16,1-octene  C8H17,n-octyl   C8H18,n-octane  C8H18,isooctane
 C9H19,n-nonyl   C10H8,naphthale C10H21,n-decyl  C12H9,o-bipheny C12H10,biphenyl
 HCN             HCO             HCCN            HCCO            HNC            
 HNCO            HNO             HNO2            HNO3            HCHO,formaldehy
 HCOOH           H2O2            (HCOOH)2        *N              NCO            
 *NH             NH2             NH3             NH2OH           NO2            
 NO3             NCN             N2H2            NH2NO2          N2H4           
 N2O             N2O3            N2O4            N2O5            N3             
 N3H             O3              C(gr)           H2O(cr)         H2O(L)         

 NOTE. WEIGHT FRACTION OF FUEL IN TOTAL FUELS AND OF OXIDANT IN TOTAL OXIDANTS






 POINT ITN      T            C           H           O           N 

   1    2    3041.909     -15.741     -10.259     -16.653     -13.011

 Pinf/Pt = 1.749053
   2    4    2826.699     -15.822     -10.416     -17.224     -13.150

 Pinf/Pt = 1.757859
   2    2    2824.732     -15.822     -10.417     -17.230     -13.151

 Pinf/Pt = 1.757960
   2    1    2824.710     -15.822     -10.417     -17.230     -13.151

   3    5    2030.427     -14.839     -10.776     -20.945     -13.545

   4    3    1999.840     -14.760     -10.787     -21.158     -13.560

   5    3    1971.816     -14.685     -10.797     -21.359     -13.573

   6    3    1945.989     -14.613     -10.806     -21.550     -13.585

   7    3    1922.062     -14.544     -10.815     -21.731     -13.597

   8    3    1899.795     -14.478     -10.823     -21.905     -13.608






              THEORETICAL ROCKET PERFORMANCE ASSUMING EQUILIBRIUM

           COMPOSITION DURING EXPANSION FROM INFINITE AREA COMBUSTOR

 Pin =   362.6 PSIA
 CASE = new-ethanol-95-

             REACTANT                    WT FRACTION      ENERGY      TEMP
                                          (SEE NOTE)     KJ/KG-MOL      K  
 FUEL        C2H5OH(L)                    0.9500000   -277526.835    298.000
 FUEL        H2O(L)                       0.0500000   -285841.390    298.000
 OXIDANT     N2O                          1.0000000     81594.206    298.000

 O/F=    3.90000  %FUEL= 20.408163  R,EQ.RATIO= 1.313536  PHI,EQ.RATIO= 1.396323

                 CHAMBER   THROAT     EXIT     EXIT     EXIT     EXIT     EXIT     EXIT
 Pinf/P            1.0000   1.7580   12.560   13.607   14.653   15.700   16.747   17.793
 P, BAR            25.000   14.221   1.9904   1.8373   1.7061   1.5923   1.4928   1.4050
 T, K             3041.91  2824.71  2030.43  1999.84  1971.82  1945.99  1922.06  1899.79
 RHO, KG/CU M    2.4491 0 1.5115 0 2.9696-1 2.7832-1 2.6212-1 2.4790-1 2.3531-1 2.2407-1
 H, KJ/KG          145.67  -407.61 -1987.54 -2040.78 -2089.36 -2133.97 -2175.17 -2213.41
 U, KJ/KG         -875.13 -1348.46 -2657.81 -2700.93 -2740.23 -2776.30 -2809.59 -2840.46
 G, KJ/KG        -31726.4 -30004.0 -23261.7 -22994.4 -22749.4 -22523.4 -22313.9 -22118.8
 S, KJ/(KG)(K)    10.4777  10.4777  10.4777  10.4777  10.4777  10.4777  10.4777  10.4777

 M, (1/n)          24.777   24.963   25.187   25.188   25.189   25.190   25.190   25.191
 (dLV/dLP)t      -1.00909 -1.00506 -1.00014 -1.00012 -1.00010 -1.00008 -1.00007 -1.00006
 (dLV/dLT)p        1.1947   1.1166   1.0041   1.0034   1.0029   1.0025   1.0022   1.0019
 Cp, KJ/(KG)(K)    3.2065   2.6827   1.7519   1.7428   1.7352   1.7287   1.7231   1.7182
 GAMMAs            1.1632   1.1761   1.2343   1.2355   1.2365   1.2373   1.2381   1.2388
 SON VEL,M/SEC     1089.7   1051.9    909.6    903.1    897.1    891.5    886.3    881.4
 MACH NUMBER        0.000    1.000    2.271    2.316    2.357    2.395    2.431    2.465

 PERFORMANCE PARAMETERS

 Ae/At                      1.0000   2.5922   2.7319   2.8690   3.0038   3.1363   3.2669
 CSTAR, M/SEC               1572.3   1572.3   1572.3   1572.3   1572.3   1572.3   1572.3
 CF                         0.6690   1.3137   1.3300   1.3447   1.3580   1.3702   1.3815
 Ivac, M/SEC                1946.3   2390.0   2406.8   2422.1   2436.1   2448.9   2460.8
 Isp, M/SEC                 1051.9   2065.5   2091.1   2114.3   2135.2   2154.5   2172.1


 MOLE FRACTIONS

 *CO              0.13117  0.12677  0.11423  0.11360  0.11300  0.11242  0.11187  0.11134
 *CO2             0.07737  0.08334  0.09776  0.09840  0.09901  0.09959  0.10015  0.10069
 *H               0.00867  0.00568  0.00036  0.00031  0.00027  0.00023  0.00020  0.00018
 HO2              0.00001  0.00000  0.00000  0.00000  0.00000  0.00000  0.00000  0.00000
 *H2              0.05823  0.05741  0.06620  0.06685  0.06746  0.06805  0.06861  0.06915
 H2O              0.25717  0.26495  0.26579  0.26520  0.26464  0.26409  0.26356  0.26304
 *NO              0.00374  0.00184  0.00001  0.00001  0.00001  0.00001  0.00000  0.00000
 *N2              0.44618  0.45050  0.45546  0.45549  0.45550  0.45552  0.45553  0.45554
 *O               0.00118  0.00046  0.00000  0.00000  0.00000  0.00000  0.00000  0.00000
 *OH              0.01420  0.00820  0.00017  0.00014  0.00011  0.00009  0.00008  0.00006
 *O2              0.00206  0.00086  0.00000  0.00000  0.00000  0.00000  0.00000  0.00000

  * THERMODYNAMIC PROPERTIES FITTED TO 20000.K

    PRODUCTS WHICH WERE CONSIDERED BUT WHOSE MOLE FRACTIONS
    WERE LESS THAN 5.000000E-06 FOR ALL ASSIGNED CONDITIONS

 *C              *CH             CH2             CH3             CH2OH          
 CH3O            CH4             CH3OH           CH3OOH          *CN            
 CNN             COOH            *C2             C2H             C2H2,acetylene 
 C2H2,vinylidene CH2CO,ketene    O(CH)2O         HO(CO)2OH       C2H3,vinyl     
 CH3CN           CH3CO,acetyl    C2H4            C2H4O,ethylen-o CH3CHO,ethanal 
 CH3COOH         OHCH2COOH       C2H5            C2H6            CH3N2CH3       
 C2H5OH          CH3OCH3         CH3O2CH3        CCN             CNC            
 OCCN            C2N2            C2O             *C3             C3H3,1-propynl 
 C3H3,2-propynl  C3H4,allene     C3H4,propyne    C3H4,cyclo-     C3H5,allyl     
 C3H6,propylene  C3H6,cyclo-     C3H6O,propylox  C3H6O,acetone   C3H6O,propanal 
 C3H7,n-propyl   C3H7,i-propyl   C3H8            C3H8O,1propanol C3H8O,2propanol
 CNCOCN          C3O2            *C4             C4H2,butadiyne  C4H4,1,3-cyclo-
 C4H6,butadiene  C4H6,1butyne    C4H6,2butyne    C4H6,cyclo-     C4H8,1-butene  
 C4H8,cis2-buten C4H8,tr2-butene C4H8,isobutene  C4H8,cyclo-     (CH3COOH)2     
 C4H9,n-butyl    C4H9,i-butyl    C4H9,s-butyl    C4H9,t-butyl    C4H10,n-butane 
 C4H10,isobutane C4N2            *C5             C5H6,1,3cyclo-  C5H8,cyclo-    
 C5H10,1-pentene C5H10,cyclo-    C5H11,pentyl    C5H11,t-pentyl  C5H12,n-pentane
 C5H12,i-pentane CH3C(CH3)2CH3   C6H2            C6H5,phenyl     C6H5O,phenoxy  
 C6H6            C6H5OH,phenol   C6H10,cyclo-    C6H12,1-hexene  C6H12,cyclo-   
 C6H13,n-hexyl   C6H14,n-hexane  C7H7,benzyl     C7H8            C7H8O,cresol-mx
 C7H14,1-heptene C7H15,n-heptyl  C7H16,n-heptane C7H16,2-methylh C8H8,styrene   
 C8H10,ethylbenz C8H16,1-octene  C8H17,n-octyl   C8H18,n-octane  C8H18,isooctane
 C9H19,n-nonyl   C10H8,naphthale C10H21,n-decyl  C12H9,o-bipheny C12H10,biphenyl
 HCN             HCO             HCCN            HCCO            HNC            
 HNCO            HNO             HNO2            HNO3            HCHO,formaldehy
 HCOOH           H2O2            (HCOOH)2        *N              NCO            
 *NH             NH2             NH3             NH2OH           NO2            
 NO3             NCN             N2H2            NH2NO2          N2H4           
 N2O             N2O3            N2O4            N2O5            N3             
 N3H             O3              C(gr)           H2O(cr)         H2O(L)         

 NOTE. WEIGHT FRACTION OF FUEL IN TOTAL FUELS AND OF OXIDANT IN TOTAL OXIDANTS





   3    3    1878.987     -14.414     -10.831     -22.071     -13.618

   4    3    1859.474     -14.352     -10.838     -22.231     -13.628

   5    3    1841.114     -14.293     -10.845     -22.384     -13.637

   6    3    1823.788     -14.235     -10.851     -22.532     -13.646

   7    2    1807.394     -14.179     -10.857     -22.674     -13.654






              THEORETICAL ROCKET PERFORMANCE ASSUMING EQUILIBRIUM

           COMPOSITION DURING EXPANSION FROM INFINITE AREA COMBUSTOR

 Pin =   362.6 PSIA
 CASE = new-ethanol-95-

             REACTANT                    WT FRACTION      ENERGY      TEMP
                                          (SEE NOTE)     KJ/KG-MOL      K  
 FUEL        C2H5OH(L)                    0.9500000   -277526.835    298.000
 FUEL        H2O(L)                       0.0500000   -285841.390    298.000
 OXIDANT     N2O                          1.0000000     81594.206    298.000

 O/F=    3.90000  %FUEL= 20.408163  R,EQ.RATIO= 1.313536  PHI,EQ.RATIO= 1.396323

                 CHAMBER   THROAT     EXIT     EXIT     EXIT     EXIT     EXIT
 Pinf/P            1.0000   1.7580   18.840   19.887   20.933   21.980   23.027
 P, BAR            25.000   14.221   1.3270   1.2571   1.1943   1.1374   1.0857
 T, K             3041.91  2824.71  1878.99  1859.47  1841.11  1823.79  1807.39
 RHO, KG/CU M    2.4491 0 1.5115 0 2.1396-1 2.0483-1 1.9653-1 1.8896-1 1.8200-1
 H, KJ/KG          145.67  -407.61 -2249.05 -2282.41 -2313.73 -2343.24 -2371.12
 U, KJ/KG         -875.13 -1348.46 -2869.23 -2896.14 -2921.39 -2945.18 -2967.64
 G, KJ/KG        -31726.4 -30004.0 -21936.4 -21765.3 -21604.3 -21452.3 -21308.4
 S, KJ/(KG)(K)    10.4777  10.4777  10.4777  10.4777  10.4777  10.4777  10.4777

 M, (1/n)          24.777   24.963   25.191   25.191   25.192   25.192   25.192
 (dLV/dLP)t      -1.00909 -1.00506 -1.00005 -1.00005 -1.00004 -1.00004 -1.00003
 (dLV/dLT)p        1.1947   1.1166   1.0016   1.0014   1.0013   1.0011   1.0010
 Cp, KJ/(KG)(K)    3.2065   2.6827   1.7140   1.7101   1.7067   1.7036   1.7008
 GAMMAs            1.1632   1.1761   1.2394   1.2399   1.2404   1.2409   1.2413
 SON VEL,M/SEC     1089.7   1051.9    876.7    872.3    868.2    864.3    860.5
 MACH NUMBER        0.000    1.000    2.496    2.526    2.555    2.582    2.607

 PERFORMANCE PARAMETERS

 Ae/At                      1.0000   3.3956   3.5225   3.6478   3.7715   3.8938
 CSTAR, M/SEC               1572.3   1572.3   1572.3   1572.3   1572.3   1572.3
 CF                         0.6690   1.3919   1.4015   1.4105   1.4190   1.4269
 Ivac, M/SEC                1946.3   2471.9   2482.2   2491.8   2500.9   2509.4
 Isp, M/SEC                 1051.9   2188.5   2203.7   2217.8   2231.1   2243.6


 MOLE FRACTIONS

 *CO              0.13117  0.12677  0.11083  0.11033  0.10985  0.10939  0.10894
 *CO2             0.07737  0.08334  0.10120  0.10170  0.10218  0.10265  0.10310
 *H               0.00867  0.00568  0.00016  0.00014  0.00012  0.00011  0.00010
 HO2              0.00001  0.00000  0.00000  0.00000  0.00000  0.00000  0.00000
 *H2              0.05823  0.05741  0.06967  0.07017  0.07066  0.07113  0.07158
 H2O              0.25717  0.26495  0.26254  0.26206  0.26159  0.26113  0.26068
 *NO              0.00374  0.00184  0.00000  0.00000  0.00000  0.00000  0.00000
 *N2              0.44618  0.45050  0.45555  0.45555  0.45556  0.45556  0.45557
 *O               0.00118  0.00046  0.00000  0.00000  0.00000  0.00000  0.00000
 *OH              0.01420  0.00820  0.00005  0.00004  0.00004  0.00003  0.00003
 *O2              0.00206  0.00086  0.00000  0.00000  0.00000  0.00000  0.00000

  * THERMODYNAMIC PROPERTIES FITTED TO 20000.K

    PRODUCTS WHICH WERE CONSIDERED BUT WHOSE MOLE FRACTIONS
    WERE LESS THAN 5.000000E-06 FOR ALL ASSIGNED CONDITIONS

 *C              *CH             CH2             CH3             CH2OH          
 CH3O            CH4             CH3OH           CH3OOH          *CN            
 CNN             COOH            *C2             C2H             C2H2,acetylene 
 C2H2,vinylidene CH2CO,ketene    O(CH)2O         HO(CO)2OH       C2H3,vinyl     
 CH3CN           CH3CO,acetyl    C2H4            C2H4O,ethylen-o CH3CHO,ethanal 
 CH3COOH         OHCH2COOH       C2H5            C2H6            CH3N2CH3       
 C2H5OH          CH3OCH3         CH3O2CH3        CCN             CNC            
 OCCN            C2N2            C2O             *C3             C3H3,1-propynl 
 C3H3,2-propynl  C3H4,allene     C3H4,propyne    C3H4,cyclo-     C3H5,allyl     
 C3H6,propylene  C3H6,cyclo-     C3H6O,propylox  C3H6O,acetone   C3H6O,propanal 
 C3H7,n-propyl   C3H7,i-propyl   C3H8            C3H8O,1propanol C3H8O,2propanol
 CNCOCN          C3O2            *C4             C4H2,butadiyne  C4H4,1,3-cyclo-
 C4H6,butadiene  C4H6,1butyne    C4H6,2butyne    C4H6,cyclo-     C4H8,1-butene  
 C4H8,cis2-buten C4H8,tr2-butene C4H8,isobutene  C4H8,cyclo-     (CH3COOH)2     
 C4H9,n-butyl    C4H9,i-butyl    C4H9,s-butyl    C4H9,t-butyl    C4H10,n-butane 
 C4H10,isobutane C4N2            *C5             C5H6,1,3cyclo-  C5H8,cyclo-    
 C5H10,1-pentene C5H10,cyclo-    C5H11,pentyl    C5H11,t-pentyl  C5H12,n-pentane
 C5H12,i-pentane CH3C(CH3)2CH3   C6H2            C6H5,phenyl     C6H5O,phenoxy  
 C6H6            C6H5OH,phenol   C6H10,cyclo-    C6H12,1-hexene  C6H12,cyclo-   
 C6H13,n-hexyl   C6H14,n-hexane  C7H7,benzyl     C7H8            C7H8O,cresol-mx
 C7H14,1-heptene C7H15,n-heptyl  C7H16,n-heptane C7H16,2-methylh C8H8,styrene   
 C8H10,ethylbenz C8H16,1-octene  C8H17,n-octyl   C8H18,n-octane  C8H18,isooctane
 C9H19,n-nonyl   C10H8,naphthale C10H21,n-decyl  C12H9,o-bipheny C12H10,biphenyl
 HCN             HCO             HCCN            HCCO            HNC            
 HNCO            HNO             HNO2            HNO3            HCHO,formaldehy
 HCOOH           H2O2            (HCOOH)2        *N              NCO            
 *NH             NH2             NH3             NH2OH           NO2            
 NO3             NCN             N2H2            NH2NO2          N2H4           
 N2O             N2O3            N2O4            N2O5            N3             
 N3H             O3              C(gr)           H2O(cr)         H2O(L)         

 NOTE. WEIGHT FRACTION OF FUEL IN TOTAL FUELS AND OF OXIDANT IN TOTAL OXIDANTS






 POINT ITN      T            C           H           O           N 

   1    2    3047.771     -15.666     -10.216     -16.632     -12.967

 Pinf/Pt = 1.749718
   2    4    2830.170     -15.740     -10.371     -17.210     -13.105

 Pinf/Pt = 1.758665
   2    2    2828.153     -15.740     -10.373     -17.216     -13.106

 Pinf/Pt = 1.758769
   2    1    2828.130     -15.740     -10.373     -17.216     -13.106

   3    5    2029.978     -14.741     -10.728     -20.948     -13.497

   4    3    1999.371     -14.663     -10.739     -21.161     -13.512

   5    3    1971.332     -14.587     -10.749     -21.362     -13.525

   6    3    1945.493     -14.515     -10.758     -21.553     -13.537

   7    3    1921.559     -14.446     -10.767     -21.735     -13.549

   8    3    1899.286     -14.380     -10.775     -21.909     -13.560






              THEORETICAL ROCKET PERFORMANCE ASSUMING EQUILIBRIUM

           COMPOSITION DURING EXPANSION FROM INFINITE AREA COMBUSTOR

 Pin =   398.9 PSIA
 CASE = new-ethanol-95-

             REACTANT                    WT FRACTION      ENERGY      TEMP
                                          (SEE NOTE)     KJ/KG-MOL      K  
 FUEL        C2H5OH(L)                    0.9500000   -277526.835    298.000
 FUEL        H2O(L)                       0.0500000   -285841.390    298.000
 OXIDANT     N2O                          1.0000000     81594.206    298.000

 O/F=    3.90000  %FUEL= 20.408163  R,EQ.RATIO= 1.313536  PHI,EQ.RATIO= 1.396323

                 CHAMBER   THROAT     EXIT     EXIT     EXIT     EXIT     EXIT     EXIT
 Pinf/P            1.0000   1.7588   12.560   13.607   14.653   15.700   16.747   17.793
 P, BAR            27.500   15.636   2.1895   2.0211   1.8767   1.7516   1.6421   1.5455
 T, K             3047.77  2828.13  2029.98  1999.37  1971.33  1945.49  1921.56  1899.29
 RHO, KG/CU M    2.6901 0 1.6604 0 3.2673-1 3.0623-1 2.8841-1 2.7276-1 2.5891-1 2.4654-1
 H, KJ/KG          145.67  -408.71 -1988.58 -2041.81 -2090.38 -2134.98 -2176.16 -2214.39
 U, KJ/KG         -876.61 -1350.39 -2658.70 -2701.80 -2741.08 -2777.14 -2810.41 -2841.27
 G, KJ/KG        -31690.4 -29950.5 -23193.1 -22926.6 -22682.3 -22457.0 -22248.2 -22053.7
 S, KJ/(KG)(K)    10.4457  10.4457  10.4457  10.4457  10.4457  10.4457  10.4457  10.4457

 M, (1/n)          24.789   24.971   25.187   25.188   25.189   25.190   25.190   25.191
 (dLV/dLP)t      -1.00882 -1.00487 -1.00013 -1.00011 -1.00009 -1.00008 -1.00007 -1.00006
 (dLV/dLT)p        1.1888   1.1122   1.0039   1.0033   1.0028   1.0024   1.0020   1.0018
 Cp, KJ/(KG)(K)    3.1621   2.6477   1.7498   1.7411   1.7337   1.7274   1.7220   1.7172
 GAMMAs            1.1643   1.1774   1.2346   1.2357   1.2366   1.2375   1.2382   1.2389
 SON VEL,M/SEC     1091.0   1053.0    909.6    903.1    897.0    891.4    886.2    881.3
 MACH NUMBER        0.000    1.000    2.271    2.316    2.357    2.396    2.432    2.465

 PERFORMANCE PARAMETERS

 Ae/At                      1.0000   2.5901   2.7296   2.8666   3.0013   3.1337   3.2642
 CSTAR, M/SEC               1572.9   1572.9   1572.9   1572.9   1572.9   1572.9   1572.9
 CF                         0.6695   1.3135   1.3298   1.3445   1.3578   1.3700   1.3813
 Ivac, M/SEC                1947.3   2390.4   2407.2   2422.4   2436.4   2449.2   2461.1
 Isp, M/SEC                 1053.0   2066.0   2091.6   2114.7   2135.7   2154.9   2172.6


 MOLE FRACTIONS

 *CO              0.13107  0.12671  0.11423  0.11359  0.11299  0.11241  0.11186  0.11133
 *CO2             0.07757  0.08346  0.09777  0.09841  0.09902  0.09961  0.10016  0.10070
 *H               0.00840  0.00547  0.00035  0.00029  0.00025  0.00022  0.00019  0.00017
 HO2              0.00001  0.00000  0.00000  0.00000  0.00000  0.00000  0.00000  0.00000
 *H2              0.05808  0.05732  0.06621  0.06686  0.06747  0.06806  0.06862  0.06916
 H2O              0.25777  0.26537  0.26579  0.26520  0.26464  0.26408  0.26355  0.26303
 *NO              0.00368  0.00179  0.00001  0.00001  0.00001  0.00001  0.00000  0.00000
 *N2              0.44642  0.45067  0.45547  0.45549  0.45551  0.45552  0.45553  0.45554
 *O               0.00112  0.00043  0.00000  0.00000  0.00000  0.00000  0.00000  0.00000
 *OH              0.01389  0.00795  0.00017  0.00013  0.00011  0.00009  0.00007  0.00006
 *O2              0.00197  0.00080  0.00000  0.00000  0.00000  0.00000  0.00000  0.00000

  * THERMODYNAMIC PROPERTIES FITTED TO 20000.K

    PRODUCTS WHICH WERE CONSIDERED BUT WHOSE MOLE FRACTIONS
    WERE LESS THAN 5.000000E-06 FOR ALL ASSIGNED CONDITIONS

 *C              *CH             CH2             CH3             CH2OH          
 CH3O            CH4             CH3OH           CH3OOH          *CN            
 CNN             COOH            *C2             C2H             C2H2,acetylene 
 C2H2,vinylidene CH2CO,ketene    O(CH)2O         HO(CO)2OH       C2H3,vinyl     
 CH3CN           CH3CO,acetyl    C2H4            C2H4O,ethylen-o CH3CHO,ethanal 
 CH3COOH         OHCH2COOH       C2H5            C2H6            CH3N2CH3       
 C2H5OH          CH3OCH3         CH3O2CH3        CCN             CNC            
 OCCN            C2N2            C2O             *C3             C3H3,1-propynl 
 C3H3,2-propynl  C3H4,allene     C3H4,propyne    C3H4,cyclo-     C3H5,allyl     
 C3H6,propylene  C3H6,cyclo-     C3H6O,propylox  C3H6O,acetone   C3H6O,propanal 
 C3H7,n-propyl   C3H7,i-propyl   C3H8            C3H8O,1propanol C3H8O,2propanol
 CNCOCN          C3O2            *C4             C4H2,butadiyne  C4H4,1,3-cyclo-
 C4H6,butadiene  C4H6,1butyne    C4H6,2butyne    C4H6,cyclo-     C4H8,1-butene  
 C4H8,cis2-buten C4H8,tr2-butene C4H8,isobutene  C4H8,cyclo-     (CH3COOH)2     
 C4H9,n-butyl    C4H9,i-butyl    C4H9,s-butyl    C4H9,t-butyl    C4H10,n-butane 
 C4H10,isobutane C4N2            *C5             C5H6,1,3cyclo-  C5H8,cyclo-    
 C5H10,1-pentene C5H10,cyclo-    C5H11,pentyl    C5H11,t-pentyl  C5H12,n-pentane
 C5H12,i-pentane CH3C(CH3)2CH3   C6H2            C6H5,phenyl     C6H5O,phenoxy  
 C6H6            C6H5OH,phenol   C6H10,cyclo-    C6H12,1-hexene  C6H12,cyclo-   
 C6H13,n-hexyl   C6H14,n-hexane  C7H7,benzyl     C7H8            C7H8O,cresol-mx
 C7H14,1-heptene C7H15,n-heptyl  C7H16,n-heptane C7H16,2-methylh C8H8,styrene   
 C8H10,ethylbenz C8H16,1-octene  C8H17,n-octyl   C8H18,n-octane  C8H18,isooctane
 C9H19,n-nonyl   C10H8,naphthale C10H21,n-decyl  C12H9,o-bipheny C12H10,biphenyl
 HCN             HCO             HCCN            HCCO            HNC            
 HNCO            HNO             HNO2            HNO3            HCHO,formaldehy
 HCOOH           H2O2            (HCOOH)2        *N              NCO            
 *NH             NH2             NH3             NH2OH           NO2            
 NO3             NCN             N2H2            NH2NO2          N2H4           
 N2O             N2O3            N2O4            N2O5            N3             
 N3H             O3              C(gr)           H2O(cr)         H2O(L)         

 NOTE. WEIGHT FRACTION OF FUEL IN TOTAL FUELS AND OF OXIDANT IN TOTAL OXIDANTS





   3    3    1878.474     -14.316     -10.783     -22.075     -13.570

   4    3    1858.958     -14.254     -10.790     -22.235     -13.580

   5    3    1840.596     -14.194     -10.796     -22.388     -13.589

   6    3    1823.269     -14.137     -10.803     -22.536     -13.598

   7    2    1806.874     -14.081     -10.809     -22.679     -13.606






              THEORETICAL ROCKET PERFORMANCE ASSUMING EQUILIBRIUM

           COMPOSITION DURING EXPANSION FROM INFINITE AREA COMBUSTOR

 Pin =   398.9 PSIA
 CASE = new-ethanol-95-

             REACTANT                    WT FRACTION      ENERGY      TEMP
                                          (SEE NOTE)     KJ/KG-MOL      K  
 FUEL        C2H5OH(L)                    0.9500000   -277526.835    298.000
 FUEL        H2O(L)                       0.0500000   -285841.390    298.000
 OXIDANT     N2O                          1.0000000     81594.206    298.000

 O/F=    3.90000  %FUEL= 20.408163  R,EQ.RATIO= 1.313536  PHI,EQ.RATIO= 1.396323

                 CHAMBER   THROAT     EXIT     EXIT     EXIT     EXIT     EXIT
 Pinf/P            1.0000   1.7588   18.840   19.887   20.933   21.980   23.027
 P, BAR            27.500   15.636   1.4597   1.3828   1.3137   1.2511   1.1943
 T, K             3047.77  2828.13  1878.47  1858.96  1840.60  1823.27  1806.87
 RHO, KG/CU M    2.6901 0 1.6604 0 2.3543-1 2.2538-1 2.1625-1 2.0791-1 2.0026-1
 H, KJ/KG          145.67  -408.71 -2250.03 -2283.37 -2314.69 -2344.19 -2372.06
 U, KJ/KG         -876.61 -1350.39 -2870.03 -2896.93 -2922.18 -2945.95 -2968.40
 G, KJ/KG        -31690.4 -29950.5 -21872.0 -21701.5 -21541.0 -21389.5 -21246.1
 S, KJ/(KG)(K)    10.4457  10.4457  10.4457  10.4457  10.4457  10.4457  10.4457

 M, (1/n)          24.789   24.971   25.191   25.191   25.192   25.192   25.192
 (dLV/dLP)t      -1.00882 -1.00487 -1.00005 -1.00004 -1.00004 -1.00003 -1.00003
 (dLV/dLT)p        1.1888   1.1122   1.0016   1.0014   1.0012   1.0011   1.0010
 Cp, KJ/(KG)(K)    3.1621   2.6477   1.7130   1.7093   1.7060   1.7030   1.7002
 GAMMAs            1.1643   1.1774   1.2395   1.2400   1.2405   1.2410   1.2414
 SON VEL,M/SEC     1091.0   1053.0    876.6    872.3    868.1    864.2    860.4
 MACH NUMBER        0.000    1.000    2.497    2.527    2.555    2.582    2.608

 PERFORMANCE PARAMETERS

 Ae/At                      1.0000   3.3928   3.5196   3.6448   3.7684   3.8906
 CSTAR, M/SEC               1572.9   1572.9   1572.9   1572.9   1572.9   1572.9
 CF                         0.6695   1.3917   1.4013   1.4103   1.4188   1.4267
 Ivac, M/SEC                1947.3   2472.2   2482.5   2492.1   2501.2   2509.7
 Isp, M/SEC                 1053.0   2188.9   2204.1   2218.3   2231.5   2244.0


 MOLE FRACTIONS

 *CO              0.13107  0.12671  0.11082  0.11032  0.10984  0.10937  0.10892
 *CO2             0.07757  0.08346  0.10122  0.10172  0.10220  0.10267  0.10312
 *H               0.00840  0.00547  0.00015  0.00013  0.00012  0.00010  0.00009
 HO2              0.00001  0.00000  0.00000  0.00000  0.00000  0.00000  0.00000
 *H2              0.05808  0.05732  0.06968  0.07019  0.07067  0.07114  0.07160
 H2O              0.25777  0.26537  0.26253  0.26205  0.26158  0.26112  0.26067
 *NO              0.00368  0.00179  0.00000  0.00000  0.00000  0.00000  0.00000
 *N2              0.44642  0.45067  0.45555  0.45556  0.45556  0.45556  0.45557
 *O               0.00112  0.00043  0.00000  0.00000  0.00000  0.00000  0.00000
 *OH              0.01389  0.00795  0.00005  0.00004  0.00004  0.00003  0.00003
 *O2              0.00197  0.00080  0.00000  0.00000  0.00000  0.00000  0.00000

  * THERMODYNAMIC PROPERTIES FITTED TO 20000.K

    PRODUCTS WHICH WERE CONSIDERED BUT WHOSE MOLE FRACTIONS
    WERE LESS THAN 5.000000E-06 FOR ALL ASSIGNED CONDITIONS

 *C              *CH             CH2             CH3             CH2OH          
 CH3O            CH4             CH3OH           CH3OOH          *CN            
 CNN             COOH            *C2             C2H             C2H2,acetylene 
 C2H2,vinylidene CH2CO,ketene    O(CH)2O         HO(CO)2OH       C2H3,vinyl     
 CH3CN           CH3CO,acetyl    C2H4            C2H4O,ethylen-o CH3CHO,ethanal 
 CH3COOH         OHCH2COOH       C2H5            C2H6            CH3N2CH3       
 C2H5OH          CH3OCH3         CH3O2CH3        CCN             CNC            
 OCCN            C2N2            C2O             *C3             C3H3,1-propynl 
 C3H3,2-propynl  C3H4,allene     C3H4,propyne    C3H4,cyclo-     C3H5,allyl     
 C3H6,propylene  C3H6,cyclo-     C3H6O,propylox  C3H6O,acetone   C3H6O,propanal 
 C3H7,n-propyl   C3H7,i-propyl   C3H8            C3H8O,1propanol C3H8O,2propanol
 CNCOCN          C3O2            *C4             C4H2,butadiyne  C4H4,1,3-cyclo-
 C4H6,butadiene  C4H6,1butyne    C4H6,2butyne    C4H6,cyclo-     C4H8,1-butene  
 C4H8,cis2-buten C4H8,tr2-butene C4H8,isobutene  C4H8,cyclo-     (CH3COOH)2     
 C4H9,n-butyl    C4H9,i-butyl    C4H9,s-butyl    C4H9,t-butyl    C4H10,n-butane 
 C4H10,isobutane C4N2            *C5             C5H6,1,3cyclo-  C5H8,cyclo-    
 C5H10,1-pentene C5H10,cyclo-    C5H11,pentyl    C5H11,t-pentyl  C5H12,n-pentane
 C5H12,i-pentane CH3C(CH3)2CH3   C6H2            C6H5,phenyl     C6H5O,phenoxy  
 C6H6            C6H5OH,phenol   C6H10,cyclo-    C6H12,1-hexene  C6H12,cyclo-   
 C6H13,n-hexyl   C6H14,n-hexane  C7H7,benzyl     C7H8            C7H8O,cresol-mx
 C7H14,1-heptene C7H15,n-heptyl  C7H16,n-heptane C7H16,2-methylh C8H8,styrene   
 C8H10,ethylbenz C8H16,1-octene  C8H17,n-octyl   C8H18,n-octane  C8H18,isooctane
 C9H19,n-nonyl   C10H8,naphthale C10H21,n-decyl  C12H9,o-bipheny C12H10,biphenyl
 HCN             HCO             HCCN            HCCO            HNC            
 HNCO            HNO             HNO2            HNO3            HCHO,formaldehy
 HCOOH           H2O2            (HCOOH)2        *N              NCO            
 *NH             NH2             NH3             NH2OH           NO2            
 NO3             NCN             N2H2            NH2NO2          N2H4           
 N2O             N2O3            N2O4            N2O5            N3             
 N3H             O3              C(gr)           H2O(cr)         H2O(L)         

 NOTE. WEIGHT FRACTION OF FUEL IN TOTAL FUELS AND OF OXIDANT IN TOTAL OXIDANTS






 POINT ITN      T            C           H           O           N 

   1    2    3053.043     -15.596     -10.177     -16.614     -12.926

 Pinf/Pt = 1.750330
   2    4    2833.256     -15.665     -10.331     -17.198     -13.063

 Pinf/Pt = 1.759399
   2    2    2831.194     -15.665     -10.332     -17.204     -13.064

 Pinf/Pt = 1.759504
   2    1    2831.170     -15.665     -10.332     -17.204     -13.064

   3    5    2029.577     -14.652     -10.684     -20.951     -13.454

   4    3    1998.952     -14.573     -10.695     -21.164     -13.468

   5    3    1970.900     -14.498     -10.705     -21.366     -13.481

   6    3    1945.052     -14.426     -10.714     -21.557     -13.493

   7    3    1921.110     -14.356     -10.723     -21.739     -13.505

   8    3    1898.832     -14.290     -10.731     -21.913     -13.516






              THEORETICAL ROCKET PERFORMANCE ASSUMING EQUILIBRIUM

           COMPOSITION DURING EXPANSION FROM INFINITE AREA COMBUSTOR

 Pin =   435.1 PSIA
 CASE = new-ethanol-95-

             REACTANT                    WT FRACTION      ENERGY      TEMP
                                          (SEE NOTE)     KJ/KG-MOL      K  
 FUEL        C2H5OH(L)                    0.9500000   -277526.835    298.000
 FUEL        H2O(L)                       0.0500000   -285841.390    298.000
 OXIDANT     N2O                          1.0000000     81594.206    298.000

 O/F=    3.90000  %FUEL= 20.408163  R,EQ.RATIO= 1.313536  PHI,EQ.RATIO= 1.396323

                 CHAMBER   THROAT     EXIT     EXIT     EXIT     EXIT     EXIT     EXIT
 Pinf/P            1.0000   1.7595   12.560   13.607   14.653   15.700   16.747   17.793
 P, BAR            30.000   17.050   2.3885   2.2048   2.0473   1.9108   1.7914   1.6860
 T, K             3053.04  2831.17  2029.58  1998.95  1970.90  1945.05  1921.11  1898.83
 RHO, KG/CU M    2.9309 0 1.8092 0 3.5651-1 3.3414-1 3.1470-1 2.9763-1 2.8251-1 2.6902-1
 H, KJ/KG          145.67  -409.70 -1989.50 -2042.72 -2091.28 -2135.87 -2177.05 -2215.26
 U, KJ/KG         -877.93 -1352.11 -2659.48 -2702.56 -2741.84 -2777.88 -2811.14 -2841.99
 G, KJ/KG        -31656.4 -29900.6 -23130.6 -22864.8 -22621.2 -22396.5 -22188.3 -21994.5
 S, KJ/(KG)(K)    10.4165  10.4165  10.4165  10.4165  10.4165  10.4165  10.4165  10.4165

 M, (1/n)          24.799   24.978   25.187   25.188   25.189   25.190   25.190   25.191
 (dLV/dLP)t      -1.00858 -1.00470 -1.00013 -1.00011 -1.00009 -1.00008 -1.00006 -1.00006
 (dLV/dLT)p        1.1835   1.1083   1.0037   1.0031   1.0026   1.0023   1.0020   1.0017
 Cp, KJ/(KG)(K)    3.1223   2.6167   1.7480   1.7395   1.7324   1.7262   1.7210   1.7163
 GAMMAs            1.1653   1.1786   1.2348   1.2359   1.2368   1.2376   1.2384   1.2390
 SON VEL,M/SEC     1092.1   1053.9    909.5    903.0    897.0    891.4    886.1    881.2
 MACH NUMBER        0.000    1.000    2.272    2.317    2.358    2.396    2.432    2.466

 PERFORMANCE PARAMETERS

 Ae/At                     1.00000   2.5882   2.7277   2.8645   2.9991   3.1314   3.2618
 CSTAR, M/SEC               1573.4   1573.4   1573.4   1573.4   1573.4   1573.4   1573.4
 CF                         0.6699   1.3134   1.3297   1.3444   1.3577   1.3699   1.3811
 Ivac, M/SEC                1948.1   2390.7   2407.5   2422.7   2436.7   2449.5   2461.4
 Isp, M/SEC                 1053.9   2066.5   2092.1   2115.2   2136.1   2155.3   2173.0


 MOLE FRACTIONS

 *CO              0.13098  0.12666  0.11422  0.11359  0.11298  0.11241  0.11185  0.11132
 *CO2             0.07775  0.08358  0.09778  0.09842  0.09903  0.09962  0.10017  0.10071
 *H               0.00816  0.00529  0.00033  0.00028  0.00024  0.00021  0.00018  0.00016
 HO2              0.00001  0.00000  0.00000  0.00000  0.00000  0.00000  0.00000  0.00000
 *H2              0.05795  0.05725  0.06623  0.06687  0.06749  0.06807  0.06864  0.06918
 H2O              0.25831  0.26574  0.26580  0.26521  0.26463  0.26408  0.26355  0.26303
 *NO              0.00363  0.00175  0.00001  0.00001  0.00001  0.00001  0.00000  0.00000
 *N2              0.44665  0.45083  0.45548  0.45550  0.45551  0.45553  0.45554  0.45554
 *O               0.00107  0.00041  0.00000  0.00000  0.00000  0.00000  0.00000  0.00000
 *OH              0.01360  0.00773  0.00016  0.00013  0.00010  0.00008  0.00007  0.00006
 *O2              0.00188  0.00076  0.00000  0.00000  0.00000  0.00000  0.00000  0.00000

  * THERMODYNAMIC PROPERTIES FITTED TO 20000.K

    PRODUCTS WHICH WERE CONSIDERED BUT WHOSE MOLE FRACTIONS
    WERE LESS THAN 5.000000E-06 FOR ALL ASSIGNED CONDITIONS

 *C              *CH             CH2             CH3             CH2OH          
 CH3O            CH4             CH3OH           CH3OOH          *CN            
 CNN             COOH            *C2             C2H             C2H2,acetylene 
 C2H2,vinylidene CH2CO,ketene    O(CH)2O         HO(CO)2OH       C2H3,vinyl     
 CH3CN           CH3CO,acetyl    C2H4            C2H4O,ethylen-o CH3CHO,ethanal 
 CH3COOH         OHCH2COOH       C2H5            C2H6            CH3N2CH3       
 C2H5OH          CH3OCH3         CH3O2CH3        CCN             CNC            
 OCCN            C2N2            C2O             *C3             C3H3,1-propynl 
 C3H3,2-propynl  C3H4,allene     C3H4,propyne    C3H4,cyclo-     C3H5,allyl     
 C3H6,propylene  C3H6,cyclo-     C3H6O,propylox  C3H6O,acetone   C3H6O,propanal 
 C3H7,n-propyl   C3H7,i-propyl   C3H8            C3H8O,1propanol C3H8O,2propanol
 CNCOCN          C3O2            *C4             C4H2,butadiyne  C4H4,1,3-cyclo-
 C4H6,butadiene  C4H6,1butyne    C4H6,2butyne    C4H6,cyclo-     C4H8,1-butene  
 C4H8,cis2-buten C4H8,tr2-butene C4H8,isobutene  C4H8,cyclo-     (CH3COOH)2     
 C4H9,n-butyl    C4H9,i-butyl    C4H9,s-butyl    C4H9,t-butyl    C4H10,n-butane 
 C4H10,isobutane C4N2            *C5             C5H6,1,3cyclo-  C5H8,cyclo-    
 C5H10,1-pentene C5H10,cyclo-    C5H11,pentyl    C5H11,t-pentyl  C5H12,n-pentane
 C5H12,i-pentane CH3C(CH3)2CH3   C6H2            C6H5,phenyl     C6H5O,phenoxy  
 C6H6            C6H5OH,phenol   C6H10,cyclo-    C6H12,1-hexene  C6H12,cyclo-   
 C6H13,n-hexyl   C6H14,n-hexane  C7H7,benzyl     C7H8            C7H8O,cresol-mx
 C7H14,1-heptene C7H15,n-heptyl  C7H16,n-heptane C7H16,2-methylh C8H8,styrene   
 C8H10,ethylbenz C8H16,1-octene  C8H17,n-octyl   C8H18,n-octane  C8H18,isooctane
 C9H19,n-nonyl   C10H8,naphthale C10H21,n-decyl  C12H9,o-bipheny C12H10,biphenyl
 HCN             HCO             HCCN            HCCO            HNC            
 HNCO            HNO             HNO2            HNO3            HCHO,formaldehy
 HCOOH           H2O2            (HCOOH)2        *N              NCO            
 *NH             NH2             NH3             NH2OH           NO2            
 NO3             NCN             N2H2            NH2NO2          N2H4           
 N2O             N2O3            N2O4            N2O5            N3             
 N3H             O3              C(gr)           H2O(cr)         H2O(L)         

 NOTE. WEIGHT FRACTION OF FUEL IN TOTAL FUELS AND OF OXIDANT IN TOTAL OXIDANTS





   3    3    1878.017     -14.226     -10.739     -22.079     -13.526

   4    3    1858.499     -14.164     -10.746     -22.239     -13.536

   5    3    1840.135     -14.105     -10.752     -22.392     -13.545

   6    3    1822.807     -14.047     -10.759     -22.540     -13.554

   7    2    1806.413     -13.991     -10.765     -22.683     -13.562






              THEORETICAL ROCKET PERFORMANCE ASSUMING EQUILIBRIUM

           COMPOSITION DURING EXPANSION FROM INFINITE AREA COMBUSTOR

 Pin =   435.1 PSIA
 CASE = new-ethanol-95-

             REACTANT                    WT FRACTION      ENERGY      TEMP
                                          (SEE NOTE)     KJ/KG-MOL      K  
 FUEL        C2H5OH(L)                    0.9500000   -277526.835    298.000
 FUEL        H2O(L)                       0.0500000   -285841.390    298.000
 OXIDANT     N2O                          1.0000000     81594.206    298.000

 O/F=    3.90000  %FUEL= 20.408163  R,EQ.RATIO= 1.313536  PHI,EQ.RATIO= 1.396323

                 CHAMBER   THROAT     EXIT     EXIT     EXIT     EXIT     EXIT
 Pinf/P            1.0000   1.7595   18.840   19.887   20.933   21.980   23.027
 P, BAR            30.000   17.050   1.5923   1.5085   1.4331   1.3649   1.3028
 T, K             3053.04  2831.17  1878.02  1858.50  1840.14  1822.81  1806.41
 RHO, KG/CU M    2.9309 0 1.8092 0 2.5689-1 2.4593-1 2.3597-1 2.2687-1 2.1852-1
 H, KJ/KG          145.67  -409.70 -2250.89 -2284.23 -2315.54 -2345.03 -2372.89
 U, KJ/KG         -877.93 -1352.11 -2870.74 -2897.63 -2922.87 -2946.64 -2969.08
 G, KJ/KG        -31656.4 -29900.6 -21813.3 -21643.3 -21483.3 -21332.3 -21189.4
 S, KJ/(KG)(K)    10.4165  10.4165  10.4165  10.4165  10.4165  10.4165  10.4165

 M, (1/n)          24.799   24.978   25.191   25.192   25.192   25.192   25.192
 (dLV/dLP)t      -1.00858 -1.00470 -1.00005 -1.00004 -1.00004 -1.00003 -1.00003
 (dLV/dLT)p        1.1835   1.1083   1.0015   1.0013   1.0012   1.0010   1.0009
 Cp, KJ/(KG)(K)    3.1223   2.6167   1.7123   1.7086   1.7054   1.7024   1.6997
 GAMMAs            1.1653   1.1786   1.2396   1.2401   1.2406   1.2411   1.2415
 SON VEL,M/SEC     1092.1   1053.9    876.6    872.2    868.0    864.1    860.3
 MACH NUMBER        0.000    1.000    2.498    2.528    2.556    2.583    2.609

 PERFORMANCE PARAMETERS

 Ae/At                     1.00000   3.3903   3.5170   3.6421   3.7657   3.8878
 CSTAR, M/SEC               1573.4   1573.4   1573.4   1573.4   1573.4   1573.4
 CF                         0.6699   1.3915   1.4011   1.4101   1.4186   1.4265
 Ivac, M/SEC                1948.1   2472.4   2482.7   2492.4   2501.5   2510.0
 Isp, M/SEC                 1053.9   2189.3   2204.5   2218.6   2231.9   2244.4


 MOLE FRACTIONS

 *CO              0.13098  0.12666  0.11080  0.11031  0.10983  0.10936  0.10891
 *CO2             0.07775  0.08358  0.10123  0.10173  0.10221  0.10268  0.10313
 *H               0.00816  0.00529  0.00014  0.00012  0.00011  0.00010  0.00009
 HO2              0.00001  0.00000  0.00000  0.00000  0.00000  0.00000  0.00000
 *H2              0.05795  0.05725  0.06970  0.07020  0.07069  0.07116  0.07161
 H2O              0.25831  0.26574  0.26253  0.26204  0.26157  0.26111  0.26066
 *NO              0.00363  0.00175  0.00000  0.00000  0.00000  0.00000  0.00000
 *N2              0.44665  0.45083  0.45555  0.45556  0.45556  0.45557  0.45557
 *O               0.00107  0.00041  0.00000  0.00000  0.00000  0.00000  0.00000
 *OH              0.01360  0.00773  0.00005  0.00004  0.00003  0.00003  0.00002
 *O2              0.00188  0.00076  0.00000  0.00000  0.00000  0.00000  0.00000

  * THERMODYNAMIC PROPERTIES FITTED TO 20000.K

    PRODUCTS WHICH WERE CONSIDERED BUT WHOSE MOLE FRACTIONS
    WERE LESS THAN 5.000000E-06 FOR ALL ASSIGNED CONDITIONS

 *C              *CH             CH2             CH3             CH2OH          
 CH3O            CH4             CH3OH           CH3OOH          *CN            
 CNN             COOH            *C2             C2H             C2H2,acetylene 
 C2H2,vinylidene CH2CO,ketene    O(CH)2O         HO(CO)2OH       C2H3,vinyl     
 CH3CN           CH3CO,acetyl    C2H4            C2H4O,ethylen-o CH3CHO,ethanal 
 CH3COOH         OHCH2COOH       C2H5            C2H6            CH3N2CH3       
 C2H5OH          CH3OCH3         CH3O2CH3        CCN             CNC            
 OCCN            C2N2            C2O             *C3             C3H3,1-propynl 
 C3H3,2-propynl  C3H4,allene     C3H4,propyne    C3H4,cyclo-     C3H5,allyl     
 C3H6,propylene  C3H6,cyclo-     C3H6O,propylox  C3H6O,acetone   C3H6O,propanal 
 C3H7,n-propyl   C3H7,i-propyl   C3H8            C3H8O,1propanol C3H8O,2propanol
 CNCOCN          C3O2            *C4             C4H2,butadiyne  C4H4,1,3-cyclo-
 C4H6,butadiene  C4H6,1butyne    C4H6,2butyne    C4H6,cyclo-     C4H8,1-butene  
 C4H8,cis2-buten C4H8,tr2-butene C4H8,isobutene  C4H8,cyclo-     (CH3COOH)2     
 C4H9,n-butyl    C4H9,i-butyl    C4H9,s-butyl    C4H9,t-butyl    C4H10,n-butane 
 C4H10,isobutane C4N2            *C5             C5H6,1,3cyclo-  C5H8,cyclo-    
 C5H10,1-pentene C5H10,cyclo-    C5H11,pentyl    C5H11,t-pentyl  C5H12,n-pentane
 C5H12,i-pentane CH3C(CH3)2CH3   C6H2            C6H5,phenyl     C6H5O,phenoxy  
 C6H6            C6H5OH,phenol   C6H10,cyclo-    C6H12,1-hexene  C6H12,cyclo-   
 C6H13,n-hexyl   C6H14,n-hexane  C7H7,benzyl     C7H8            C7H8O,cresol-mx
 C7H14,1-heptene C7H15,n-heptyl  C7H16,n-heptane C7H16,2-methylh C8H8,styrene   
 C8H10,ethylbenz C8H16,1-octene  C8H17,n-octyl   C8H18,n-octane  C8H18,isooctane
 C9H19,n-nonyl   C10H8,naphthale C10H21,n-decyl  C12H9,o-bipheny C12H10,biphenyl
 HCN             HCO             HCCN            HCCO            HNC            
 HNCO            HNO             HNO2            HNO3            HCHO,formaldehy
 HCOOH           H2O2            (HCOOH)2        *N              NCO            
 *NH             NH2             NH3             NH2OH           NO2            
 NO3             NCN             N2H2            NH2NO2          N2H4           
 N2O             N2O3            N2O4            N2O5            N3             
 N3H             O3              C(gr)           H2O(cr)         H2O(L)         

 NOTE. WEIGHT FRACTION OF FUEL IN TOTAL FUELS AND OF OXIDANT IN TOTAL OXIDANTS






 POINT ITN      T            C           H           O           N 

   1    2    3057.826     -15.533     -10.141     -16.598     -12.889

 Pinf/Pt = 1.750895
   2    4    2836.024     -15.596     -10.293     -17.187     -13.025

 Pinf/Pt = 1.760070
   2    2    2833.921     -15.596     -10.294     -17.193     -13.026

 Pinf/Pt = 1.760177
   2    1    2833.897     -15.596     -10.294     -17.193     -13.026

   3    5    2029.215     -14.570     -10.644     -20.954     -13.413

   4    3    1998.574     -14.491     -10.655     -21.167     -13.427

   5    3    1970.511     -14.416     -10.665     -21.368     -13.441

   6    3    1944.655     -14.343     -10.674     -21.560     -13.453

   7    3    1920.707     -14.274     -10.682     -21.742     -13.465

   8    3    1898.425     -14.208     -10.691     -21.916     -13.475






              THEORETICAL ROCKET PERFORMANCE ASSUMING EQUILIBRIUM

           COMPOSITION DURING EXPANSION FROM INFINITE AREA COMBUSTOR

 Pin =   471.4 PSIA
 CASE = new-ethanol-95-

             REACTANT                    WT FRACTION      ENERGY      TEMP
                                          (SEE NOTE)     KJ/KG-MOL      K  
 FUEL        C2H5OH(L)                    0.9500000   -277526.835    298.000
 FUEL        H2O(L)                       0.0500000   -285841.390    298.000
 OXIDANT     N2O                          1.0000000     81594.206    298.000

 O/F=    3.90000  %FUEL= 20.408163  R,EQ.RATIO= 1.313536  PHI,EQ.RATIO= 1.396323

                 CHAMBER   THROAT     EXIT     EXIT     EXIT     EXIT     EXIT     EXIT
 Pinf/P            1.0000   1.7602   12.560   13.607   14.653   15.700   16.747   17.793
 P, BAR            32.500   18.464   2.5876   2.3885   2.2179   2.0701   1.9407   1.8265
 T, K             3057.83  2833.90  2029.22  1998.57  1970.51  1944.65  1920.71  1898.43
 RHO, KG/CU M    3.1714 0 1.9579 0 3.8629-1 3.6206-1 3.4099-1 3.2250-1 3.0612-1 2.9150-1
 H, KJ/KG          145.67  -410.60 -1990.33 -2043.54 -2092.09 -2136.67 -2177.84 -2216.05
 U, KJ/KG         -879.13 -1353.67 -2660.18 -2703.25 -2742.51 -2778.54 -2811.79 -2842.64
 G, KJ/KG        -31624.1 -29853.9 -23073.2 -22808.1 -22565.1 -22341.0 -22133.4 -21940.1
 S, KJ/(KG)(K)    10.3897  10.3897  10.3897  10.3897  10.3897  10.3897  10.3897  10.3897

 M, (1/n)          24.809   24.985   25.188   25.189   25.189   25.190   25.191   25.191
 (dLV/dLP)t      -1.00837 -1.00455 -1.00012 -1.00010 -1.00009 -1.00007 -1.00006 -1.00005
 (dLV/dLT)p        1.1787   1.1047   1.0036   1.0030   1.0025   1.0022   1.0019   1.0016
 Cp, KJ/(KG)(K)    3.0865   2.5889   1.7464   1.7382   1.7312   1.7252   1.7201   1.7156
 GAMMAs            1.1662   1.1797   1.2349   1.2360   1.2369   1.2377   1.2385   1.2391
 SON VEL,M/SEC     1093.2   1054.8    909.5    903.0    897.0    891.3    886.1    881.1
 MACH NUMBER        0.000    1.000    2.272    2.317    2.359    2.397    2.433    2.467

 PERFORMANCE PARAMETERS

 Ae/At                      1.0000   2.5865   2.7259   2.8627   2.9971   3.1294   3.2597
 CSTAR, M/SEC               1573.8   1573.8   1573.8   1573.8   1573.8   1573.8   1573.8
 CF                         0.6702   1.3133   1.3296   1.3442   1.3576   1.3698   1.3810
 Ivac, M/SEC                1948.9   2391.0   2407.7   2423.0   2436.9   2449.8   2461.7
 Isp, M/SEC                 1054.8   2066.9   2092.5   2115.5   2136.5   2155.7   2173.3


 MOLE FRACTIONS

 *CO              0.13090  0.12662  0.11421  0.11358  0.11298  0.11240  0.11184  0.11131
 *CO2             0.07792  0.08368  0.09779  0.09843  0.09904  0.09962  0.10018  0.10072
 *H               0.00794  0.00513  0.00032  0.00027  0.00023  0.00020  0.00017  0.00015
 HO2              0.00001  0.00000  0.00000  0.00000  0.00000  0.00000  0.00000  0.00000
 *H2              0.05783  0.05718  0.06624  0.06688  0.06750  0.06808  0.06865  0.06919
 H2O              0.25880  0.26608  0.26580  0.26521  0.26463  0.26408  0.26354  0.26302
 *NO              0.00357  0.00171  0.00001  0.00001  0.00001  0.00001  0.00000  0.00000
 *N2              0.44685  0.45097  0.45548  0.45550  0.45552  0.45553  0.45554  0.45555
 *O               0.00103  0.00039  0.00000  0.00000  0.00000  0.00000  0.00000  0.00000
 *OH              0.01334  0.00753  0.00015  0.00012  0.00010  0.00008  0.00007  0.00005
 *O2              0.00181  0.00072  0.00000  0.00000  0.00000  0.00000  0.00000  0.00000

  * THERMODYNAMIC PROPERTIES FITTED TO 20000.K

    PRODUCTS WHICH WERE CONSIDERED BUT WHOSE MOLE FRACTIONS
    WERE LESS THAN 5.000000E-06 FOR ALL ASSIGNED CONDITIONS

 *C              *CH             CH2             CH3             CH2OH          
 CH3O            CH4             CH3OH           CH3OOH          *CN            
 CNN             COOH            *C2             C2H             C2H2,acetylene 
 C2H2,vinylidene CH2CO,ketene    O(CH)2O         HO(CO)2OH       C2H3,vinyl     
 CH3CN           CH3CO,acetyl    C2H4            C2H4O,ethylen-o CH3CHO,ethanal 
 CH3COOH         OHCH2COOH       C2H5            C2H6            CH3N2CH3       
 C2H5OH          CH3OCH3         CH3O2CH3        CCN             CNC            
 OCCN            C2N2            C2O             *C3             C3H3,1-propynl 
 C3H3,2-propynl  C3H4,allene     C3H4,propyne    C3H4,cyclo-     C3H5,allyl     
 C3H6,propylene  C3H6,cyclo-     C3H6O,propylox  C3H6O,acetone   C3H6O,propanal 
 C3H7,n-propyl   C3H7,i-propyl   C3H8            C3H8O,1propanol C3H8O,2propanol
 CNCOCN          C3O2            *C4             C4H2,butadiyne  C4H4,1,3-cyclo-
 C4H6,butadiene  C4H6,1butyne    C4H6,2butyne    C4H6,cyclo-     C4H8,1-butene  
 C4H8,cis2-buten C4H8,tr2-butene C4H8,isobutene  C4H8,cyclo-     (CH3COOH)2     
 C4H9,n-butyl    C4H9,i-butyl    C4H9,s-butyl    C4H9,t-butyl    C4H10,n-butane 
 C4H10,isobutane C4N2            *C5             C5H6,1,3cyclo-  C5H8,cyclo-    
 C5H10,1-pentene C5H10,cyclo-    C5H11,pentyl    C5H11,t-pentyl  C5H12,n-pentane
 C5H12,i-pentane CH3C(CH3)2CH3   C6H2            C6H5,phenyl     C6H5O,phenoxy  
 C6H6            C6H5OH,phenol   C6H10,cyclo-    C6H12,1-hexene  C6H12,cyclo-   
 C6H13,n-hexyl   C6H14,n-hexane  C7H7,benzyl     C7H8            C7H8O,cresol-mx
 C7H14,1-heptene C7H15,n-heptyl  C7H16,n-heptane C7H16,2-methylh C8H8,styrene   
 C8H10,ethylbenz C8H16,1-octene  C8H17,n-octyl   C8H18,n-octane  C8H18,isooctane
 C9H19,n-nonyl   C10H8,naphthale C10H21,n-decyl  C12H9,o-bipheny C12H10,biphenyl
 HCN             HCO             HCCN            HCCO            HNC            
[...]
 NO3             NCN             N2H2            NH2NO2          N2H4           
 N2O             N2O3            N2O4            N2O5            N3             
 N3H             O3              C(gr)           H2O(cr)         H2O(L)         

 NOTE. WEIGHT FRACTION OF FUEL IN TOTAL FUELS AND OF OXIDANT IN TOTAL OXIDANTS





   3    3    1982.111     -15.287     -10.961     -20.938     -13.556

   4    3    1961.968     -15.232     -10.968     -21.085     -13.566

   5    3    1942.996     -15.178     -10.975     -21.227     -13.576

   6    2    1925.077     -15.126     -10.981     -21.364     -13.584

   7    2    1908.109     -15.076     -10.987     -21.496     -13.593






              THEORETICAL ROCKET PERFORMANCE ASSUMING EQUILIBRIUM

           COMPOSITION DURING EXPANSION FROM INFINITE AREA COMBUSTOR

 Pin =   471.4 PSIA
 CASE = new-ethanol-95-

             REACTANT                    WT FRACTION      ENERGY      TEMP
                                          (SEE NOTE)     KJ/KG-MOL      K  
 FUEL        C2H5OH(L)                    0.9500000   -277526.835    298.000
 FUEL        H2O(L)                       0.0500000   -285841.390    298.000
 OXIDANT     N2O                          1.0000000     81594.206    298.000

 O/F=    4.20000  %FUEL= 19.230769  R,EQ.RATIO= 1.238186  PHI,EQ.RATIO= 1.296585

                 CHAMBER   THROAT     EXIT     EXIT     EXIT     EXIT     EXIT
 Pinf/P            1.0000   1.7493   18.840   19.887   20.933   21.980   23.027
 P, BAR            32.500   18.579   1.7250   1.6343   1.5525   1.4786   1.4114
 T, K             3110.11  2906.85  1982.11  1961.97  1943.00  1925.08  1908.11
 RHO, KG/CU M    3.1747 0 1.9588 0 2.7032-1 2.5873-1 2.4820-1 2.3859-1 2.2977-1
 H, KJ/KG          244.22  -307.11 -2188.46 -2222.79 -2255.03 -2285.41 -2314.11
 U, KJ/KG         -779.51 -1255.57 -2826.60 -2854.42 -2880.54 -2905.14 -2928.37
 G, KJ/KG        -31742.6 -30203.4 -22574.0 -22401.2 -22238.3 -22084.4 -21938.6
 S, KJ/(KG)(K)    10.2848  10.2848  10.2848  10.2848  10.2848  10.2848  10.2848

 M, (1/n)          25.260   25.482   25.826   25.826   25.827   25.827   25.828
 (dLV/dLP)t      -1.01176 -1.00750 -1.00010 -1.00009 -1.00008 -1.00007 -1.00006
 (dLV/dLT)p        1.2483   1.1703   1.0031   1.0028   1.0025   1.0022   1.0020
 Cp, KJ/(KG)(K)    3.5167   3.0332   1.7119   1.7064   1.7014   1.6970   1.6931
 GAMMAs            1.1549   1.1626   1.2333   1.2340   1.2347   1.2353   1.2358
 SON VEL,M/SEC     1087.3   1050.1    887.1    882.9    878.8    875.0    871.3
 MACH NUMBER        0.000    1.000    2.486    2.516    2.544    2.571    2.596

 PERFORMANCE PARAMETERS

 Ae/At                      1.0000   3.4496   3.5790   3.7067   3.8329   3.9575
 CSTAR, M/SEC               1580.0   1580.0   1580.0   1580.0   1580.0   1580.0
 CF                         0.6646   1.3960   1.4058   1.4150   1.4236   1.4316
 Ivac, M/SEC                1953.3   2495.1   2505.6   2515.5   2524.8   2533.6
 Isp, M/SEC                 1050.1   2205.8   2221.3   2235.7   2249.3   2262.0


 MOLE FRACTIONS

 *CO              0.11410  0.10808  0.09170  0.09132  0.09095  0.09060  0.09025
 *CO2             0.08624  0.09403  0.11313  0.11352  0.11389  0.11425  0.11460
 *H               0.00811  0.00562  0.00024  0.00022  0.00020  0.00018  0.00016
 HO2              0.00001  0.00000  0.00000  0.00000  0.00000  0.00000  0.00000
 *H2              0.04450  0.04239  0.04883  0.04921  0.04958  0.04994  0.05029
 H2O              0.25633  0.26566  0.27201  0.27166  0.27131  0.27097  0.27064
 *NO              0.00586  0.00336  0.00001  0.00001  0.00001  0.00001  0.00001
 *N2              0.46061  0.46595  0.47393  0.47394  0.47395  0.47396  0.47397
 *O               0.00185  0.00089  0.00000  0.00000  0.00000  0.00000  0.00000
 *OH              0.01819  0.01180  0.00015  0.00013  0.00011  0.00009  0.00008
 *O2              0.00418  0.00222  0.00000  0.00000  0.00000  0.00000  0.00000

  * THERMODYNAMIC PROPERTIES FITTED TO 20000.K

    PRODUCTS WHICH WERE CONSIDERED BUT WHOSE MOLE FRACTIONS
    WERE LESS THAN 5.000000E-06 FOR ALL ASSIGNED CONDITIONS

 *C              *CH             CH2             CH3             CH2OH          
 CH3O            CH4             CH3OH           CH3OOH          *CN            
 CNN             COOH            *C2             C2H             C2H2,acetylene 
 C2H2,vinylidene CH2CO,ketene    O(CH)2O         HO(CO)2OH       C2H3,vinyl     
 CH3CN           CH3CO,acetyl    C2H4            C2H4O,ethylen-o CH3CHO,ethanal 
 CH3COOH         OHCH2COOH       C2H5            C2H6            CH3N2CH3       
 C2H5OH          CH3OCH3         CH3O2CH3        CCN             CNC            
 OCCN            C2N2            C2O             *C3             C3H3,1-propynl 
 C3H3,2-propynl  C3H4,allene     C3H4,propyne    C3H4,cyclo-     C3H5,allyl     
 C3H6,propylene  C3H6,cyclo-     C3H6O,propylox  C3H6O,acetone   C3H6O,propanal 
 C3H7,n-propyl   C3H7,i-propyl   C3H8            C3H8O,1propanol C3H8O,2propanol
 CNCOCN          C3O2            *C4             C4H2,butadiyne  C4H4,1,3-cyclo-
 C4H6,butadiene  C4H6,1butyne    C4H6,2butyne    C4H6,cyclo-     C4H8,1-butene  
 C4H8,cis2-buten C4H8,tr2-butene C4H8,isobutene  C4H8,cyclo-     (CH3COOH)2     
 C4H9,n-butyl    C4H9,i-butyl    C4H9,s-butyl    C4H9,t-butyl    C4H10,n-butane 
 C4H10,isobutane C4N2            *C5             C5H6,1,3cyclo-  C5H8,cyclo-    
 C5H10,1-pentene C5H10,cyclo-    C5H11,pentyl    C5H11,t-pentyl  C5H12,n-pentane
 C5H12,i-pentane CH3C(CH3)2CH3   C6H2            C6H5,phenyl     C6H5O,phenoxy  
 C6H6            C6H5OH,phenol   C6H10,cyclo-    C6H12,1-hexene  C6H12,cyclo-   
 C6H13,n-hexyl   C6H14,n-hexane  C7H7,benzyl     C7H8            C7H8O,cresol-mx
 C7H14,1-heptene C7H15,n-heptyl  C7H16,n-heptane C7H16,2-methylh C8H8,styrene   
 C8H10,ethylbenz C8H16,1-octene  C8H17,n-octyl   C8H18,n-octane  C8H18,isooctane
 C9H19,n-nonyl   C10H8,naphthale C10H21,n-decyl  C12H9,o-bipheny C12H10,biphenyl
 HCN             HCO             HCCN            HCCO            HNC            
 HNCO            HNO             HNO2            HNO3            HCHO,formaldehy
 HCOOH           H2O2            (HCOOH)2        *N              NCO            
 *NH             NH2             NH3             NH2OH           NO2            
 NO3             NCN             N2H2            NH2NO2          N2H4           
 N2O             N2O3            N2O4            N2O5            N3             
 N3H             O3              C(gr)           H2O(cr)         H2O(L)         

 NOTE. WEIGHT FRACTION OF FUEL IN TOTAL FUELS AND OF OXIDANT IN TOTAL OXIDANTS






 POINT ITN      T            C           H           O           N 

   1    2    3115.448     -15.992     -10.270     -16.194     -12.871

 Pinf/Pt = 1.744395
   2    4    2911.605     -16.182     -10.452     -16.658     -13.018

 Pinf/Pt = 1.749824
   2    2    2910.459     -16.182     -10.452     -16.661     -13.019

 Pinf/Pt = 1.749869
   2    1    2910.449     -16.182     -10.452     -16.661     -13.019

   3    5    2137.155     -15.586     -10.870     -19.903     -13.445

   4    3    2105.868     -15.517     -10.881     -20.099     -13.460

   5    3    2077.137     -15.451     -10.891     -20.284     -13.473

   6    3    2050.607     -15.387     -10.900     -20.460     -13.486

   7    3    2025.989     -15.326     -10.909     -20.627     -13.497

   8    3    2003.047     -15.267     -10.916     -20.788     -13.508






              THEORETICAL ROCKET PERFORMANCE ASSUMING EQUILIBRIUM

           COMPOSITION DURING EXPANSION FROM INFINITE AREA COMBUSTOR

 Pin =   507.6 PSIA
 CASE = new-ethanol-95-

             REACTANT                    WT FRACTION      ENERGY      TEMP
                                          (SEE NOTE)     KJ/KG-MOL      K  
 FUEL        C2H5OH(L)                    0.9500000   -277526.835    298.000
 FUEL        H2O(L)                       0.0500000   -285841.390    298.000
 OXIDANT     N2O                          1.0000000     81594.206    298.000

 O/F=    4.20000  %FUEL= 19.230769  R,EQ.RATIO= 1.238186  PHI,EQ.RATIO= 1.296585

                 CHAMBER   THROAT     EXIT     EXIT     EXIT     EXIT     EXIT     EXIT
 Pinf/P            1.0000   1.7499   12.560   13.607   14.653   15.700   16.747   17.793
 P, BAR            35.000   20.001   2.7866   2.5723   2.3885   2.2293   2.0900   1.9670
 T, K             3115.45  2910.45  2137.16  2105.87  2077.14  2050.61  2025.99  2003.05
 RHO, KG/CU M    3.4145 0 2.1069 0 4.0488-1 3.7932-1 3.5712-1 3.3764-1 3.2040-1 3.0502-1
 H, KJ/KG          244.22  -308.03 -1920.73 -1975.41 -2025.32 -2071.17 -2113.53 -2152.85
 U, KJ/KG         -780.81 -1257.34 -2608.99 -2653.54 -2694.15 -2731.43 -2765.83 -2797.74
 G, KJ/KG        -31721.5 -30170.4 -23848.8 -23582.4 -23337.6 -23111.2 -22901.0 -22704.9
 S, KJ/(KG)(K)    10.2604  10.2604  10.2604  10.2604  10.2604  10.2604  10.2604  10.2604

 M, (1/n)          25.271   25.491   25.818   25.820   25.822   25.823   25.824   25.825
 (dLV/dLP)t      -1.01154 -1.00732 -1.00025 -1.00021 -1.00018 -1.00015 -1.00013 -1.00011
 (dLV/dLT)p        1.2434   1.1660   1.0075   1.0063   1.0053   1.0046   1.0039   1.0034
 Cp, KJ/(KG)(K)    3.4806   3.0002   1.7668   1.7530   1.7416   1.7320   1.7238   1.7167
 GAMMAs            1.1555   1.1635   1.2266   1.2282   1.2295   1.2307   1.2317   1.2326
 SON VEL,M/SEC     1088.3   1050.9    918.8    912.6    906.8    901.4    896.4    891.6
 MACH NUMBER        0.000    1.000    2.265    2.309    2.349    2.387    2.423    2.456

 PERFORMANCE PARAMETERS

 Ae/At                      1.0000   2.6283   2.7706   2.9103   3.0475   3.1826   3.3155
 CSTAR, M/SEC               1580.7   1580.7   1580.7   1580.7   1580.7   1580.7   1580.7
 CF                         0.6649   1.3164   1.3330   1.3479   1.3614   1.3738   1.3852
 Ivac, M/SEC                1954.2   2411.6   2428.8   2444.4   2458.7   2471.9   2484.1
 Isp, M/SEC                 1050.9   2080.8   2107.0   2130.5   2151.9   2171.5   2189.5


 MOLE FRACTIONS

 *CO              0.11393  0.10795  0.09432  0.09383  0.09336  0.09292  0.09249  0.09208
 *CO2             0.08649  0.09423  0.11045  0.11096  0.11144  0.11189  0.11233  0.11274
 *H               0.00792  0.00548  0.00050  0.00044  0.00038  0.00033  0.00029  0.00026
 HO2              0.00001  0.00000  0.00000  0.00000  0.00000  0.00000  0.00000  0.00000
 *H2              0.04434  0.04227  0.04623  0.04671  0.04717  0.04761  0.04804  0.04845
 H2O              0.25685  0.26607  0.27425  0.27387  0.27348  0.27311  0.27273  0.27237
 *NO              0.00581  0.00331  0.00005  0.00004  0.00003  0.00002  0.00002  0.00002
 *N2              0.46084  0.46613  0.47377  0.47381  0.47385  0.47388  0.47390  0.47392
 *O               0.00178  0.00085  0.00000  0.00000  0.00000  0.00000  0.00000  0.00000
 *OH              0.01793  0.01158  0.00042  0.00034  0.00028  0.00024  0.00020  0.00017
 *O2              0.00406  0.00213  0.00001  0.00001  0.00000  0.00000  0.00000  0.00000

  * THERMODYNAMIC PROPERTIES FITTED TO 20000.K

    PRODUCTS WHICH WERE CONSIDERED BUT WHOSE MOLE FRACTIONS
    WERE LESS THAN 5.000000E-06 FOR ALL ASSIGNED CONDITIONS

 *C              *CH             CH2             CH3             CH2OH          
 CH3O            CH4             CH3OH           CH3OOH          *CN            
 CNN             COOH            *C2             C2H             C2H2,acetylene 
 C2H2,vinylidene CH2CO,ketene    O(CH)2O         HO(CO)2OH       C2H3,vinyl     
 CH3CN           CH3CO,acetyl    C2H4            C2H4O,ethylen-o CH3CHO,ethanal 
 CH3COOH         OHCH2COOH       C2H5            C2H6            CH3N2CH3       
 C2H5OH          CH3OCH3         CH3O2CH3        CCN             CNC            
 OCCN            C2N2            C2O             *C3             C3H3,1-propynl 
 C3H3,2-propynl  C3H4,allene     C3H4,propyne    C3H4,cyclo-     C3H5,allyl     
 C3H6,propylene  C3H6,cyclo-     C3H6O,propylox  C3H6O,acetone   C3H6O,propanal 
 C3H7,n-propyl   C3H7,i-propyl   C3H8            C3H8O,1propanol C3H8O,2propanol
 CNCOCN          C3O2            *C4             C4H2,butadiyne  C4H4,1,3-cyclo-
 C4H6,butadiene  C4H6,1butyne    C4H6,2butyne    C4H6,cyclo-     C4H8,1-butene  
 C4H8,cis2-buten C4H8,tr2-butene C4H8,isobutene  C4H8,cyclo-     (CH3COOH)2     
 C4H9,n-butyl    C4H9,i-butyl    C4H9,s-butyl    C4H9,t-butyl    C4H10,n-butane 
 C4H10,isobutane C4N2            *C5             C5H6,1,3cyclo-  C5H8,cyclo-    
 C5H10,1-pentene C5H10,cyclo-    C5H11,pentyl    C5H11,t-pentyl  C5H12,n-pentane
 C5H12,i-pentane CH3C(CH3)2CH3   C6H2            C6H5,phenyl     C6H5O,phenoxy  
 C6H6            C6H5OH,phenol   C6H10,cyclo-    C6H12,1-hexene  C6H12,cyclo-   
 C6H13,n-hexyl   C6H14,n-hexane  C7H7,benzyl     C7H8            C7H8O,cresol-mx
 C7H14,1-heptene C7H15,n-heptyl  C7H16,n-heptane C7H16,2-methylh C8H8,styrene   
 C8H10,ethylbenz C8H16,1-octene  C8H17,n-octyl   C8H18,n-octane  C8H18,isooctane
 C9H19,n-nonyl   C10H8,naphthale C10H21,n-decyl  C12H9,o-bipheny C12H10,biphenyl
 HCN             HCO             HCCN            HCCO            HNC            
 HNCO            HNO             HNO2            HNO3            HCHO,formaldehy
 HCOOH           H2O2            (HCOOH)2        *N              NCO            
 *NH             NH2             NH3             NH2OH           NO2            
 NO3             NCN             N2H2            NH2NO2          N2H4           
 N2O             N2O3            N2O4            N2O5            N3             
 N3H             O3              C(gr)           H2O(cr)         H2O(L)         

 NOTE. WEIGHT FRACTION OF FUEL IN TOTAL FUELS AND OF OXIDANT IN TOTAL OXIDANTS





   3    3    1981.583     -15.210     -10.924     -20.942     -13.519

   4    3    1961.433     -15.155     -10.931     -21.089     -13.529

   5    3    1942.456     -15.101     -10.937     -21.231     -13.538

   6    2    1924.533     -15.049     -10.943     -21.368     -13.547

   7    2    1907.562     -14.999     -10.949     -21.501     -13.555






              THEORETICAL ROCKET PERFORMANCE ASSUMING EQUILIBRIUM

           COMPOSITION DURING EXPANSION FROM INFINITE AREA COMBUSTOR

 Pin =   507.6 PSIA
 CASE = new-ethanol-95-

             REACTANT                    WT FRACTION      ENERGY      TEMP
                                          (SEE NOTE)     KJ/KG-MOL      K  
 FUEL        C2H5OH(L)                    0.9500000   -277526.835    298.000
 FUEL        H2O(L)                       0.0500000   -285841.390    298.000
 OXIDANT     N2O                          1.0000000     81594.206    298.000

 O/F=    4.20000  %FUEL= 19.230769  R,EQ.RATIO= 1.238186  PHI,EQ.RATIO= 1.296585

                 CHAMBER   THROAT     EXIT     EXIT     EXIT     EXIT     EXIT
 Pinf/P            1.0000   1.7499   18.840   19.887   20.933   21.980   23.027
 P, BAR            35.000   20.001   1.8577   1.7600   1.6720   1.5923   1.5200
 T, K             3115.45  2910.45  1981.58  1961.43  1942.46  1924.53  1907.56
 RHO, KG/CU M    3.4145 0 2.1069 0 2.9120-1 2.7871-1 2.6737-1 2.5701-1 2.4752-1
 H, KJ/KG          244.22  -308.03 -2189.51 -2223.83 -2256.06 -2286.43 -2315.12
 U, KJ/KG         -780.81 -1257.34 -2827.47 -2855.29 -2881.40 -2905.99 -2929.21
 G, KJ/KG        -31721.5 -30170.4 -22521.3 -22348.9 -22186.4 -22032.9 -21887.5
 S, KJ/(KG)(K)    10.2604  10.2604  10.2604  10.2604  10.2604  10.2604  10.2604

 M, (1/n)          25.271   25.491   25.826   25.826   25.827   25.827   25.828
 (dLV/dLP)t      -1.01154 -1.00732 -1.00010 -1.00009 -1.00008 -1.00007 -1.00006
 (dLV/dLT)p        1.2434   1.1660   1.0030   1.0027   1.0024   1.0021   1.0019
 Cp, KJ/(KG)(K)    3.4806   3.0002   1.7106   1.7052   1.7004   1.6961   1.6922
 GAMMAs            1.1555   1.1635   1.2334   1.2341   1.2348   1.2354   1.2359
 SON VEL,M/SEC     1088.3   1050.9    887.1    882.8    878.7    874.9    871.2
 MACH NUMBER        0.000    1.000    2.487    2.517    2.545    2.572    2.597

 PERFORMANCE PARAMETERS

 Ae/At                      1.0000   3.4466   3.5759   3.7035   3.8295   3.9541
 CSTAR, M/SEC               1580.7   1580.7   1580.7   1580.7   1580.7   1580.7
 CF                         0.6649   1.3958   1.4056   1.4147   1.4233   1.4313
 Ivac, M/SEC                1954.2   2495.4   2506.0   2515.8   2525.1   2533.9
 Isp, M/SEC                 1050.9   2206.2   2221.7   2236.2   2249.7   2262.4


 MOLE FRACTIONS

 *CO              0.11393  0.10795  0.09169  0.09131  0.09094  0.09059  0.09024
 *CO2             0.08649  0.09423  0.11314  0.11353  0.11390  0.11426  0.11461
 *H               0.00792  0.00548  0.00023  0.00021  0.00019  0.00017  0.00015
 HO2              0.00001  0.00000  0.00000  0.00000  0.00000  0.00000  0.00000
 *H2              0.04434  0.04227  0.04884  0.04922  0.04960  0.04995  0.05030
 H2O              0.25685  0.26607  0.27201  0.27165  0.27131  0.27097  0.27064
 *NO              0.00581  0.00331  0.00001  0.00001  0.00001  0.00001  0.00001
 *N2              0.46084  0.46613  0.47393  0.47394  0.47395  0.47396  0.47397
 *O               0.00178  0.00085  0.00000  0.00000  0.00000  0.00000  0.00000
 *OH              0.01793  0.01158  0.00014  0.00012  0.00010  0.00009  0.00008
 *O2              0.00406  0.00213  0.00000  0.00000  0.00000  0.00000  0.00000

  * THERMODYNAMIC PROPERTIES FITTED TO 20000.K

    PRODUCTS WHICH WERE CONSIDERED BUT WHOSE MOLE FRACTIONS
    WERE LESS THAN 5.000000E-06 FOR ALL ASSIGNED CONDITIONS

 *C              *CH             CH2             CH3             CH2OH          
 CH3O            CH4             CH3OH           CH3OOH          *CN            
 CNN             COOH            *C2             C2H             C2H2,acetylene 
 C2H2,vinylidene CH2CO,ketene    O(CH)2O         HO(CO)2OH       C2H3,vinyl     
 CH3CN           CH3CO,acetyl    C2H4            C2H4O,ethylen-o CH3CHO,ethanal 
 CH3COOH         OHCH2COOH       C2H5            C2H6            CH3N2CH3       
 C2H5OH          CH3OCH3         CH3O2CH3        CCN             CNC            
 OCCN            C2N2            C2O             *C3             C3H3,1-propynl 
 C3H3,2-propynl  C3H4,allene     C3H4,propyne    C3H4,cyclo-     C3H5,allyl     
 C3H6,propylene  C3H6,cyclo-     C3H6O,propylox  C3H6O,acetone   C3H6O,propanal 
 C3H7,n-propyl   C3H7,i-propyl   C3H8            C3H8O,1propanol C3H8O,2propanol
 CNCOCN          C3O2            *C4             C4H2,butadiyne  C4H4,1,3-cyclo-
 C4H6,butadiene  C4H6,1butyne    C4H6,2butyne    C4H6,cyclo-     C4H8,1-butene  
 C4H8,cis2-buten C4H8,tr2-butene C4H8,isobutene  C4H8,cyclo-     (CH3COOH)2     
 C4H9,n-butyl    C4H9,i-butyl    C4H9,s-butyl    C4H9,t-butyl    C4H10,n-butane 
 C4H10,isobutane C4N2            *C5             C5H6,1,3cyclo-  C5H8,cyclo-    
 C5H10,1-pentene C5H10,cyclo-    C5H11,pentyl    C5H11,t-pentyl  C5H12,n-pentane
 C5H12,i-pentane CH3C(CH3)2CH3   C6H2            C6H5,phenyl     C6H5O,phenoxy  
 C6H6            C6H5OH,phenol   C6H10,cyclo-    C6H12,1-hexene  C6H12,cyclo-   
 C6H13,n-hexyl   C6H14,n-hexane  C7H7,benzyl     C7H8            C7H8O,cresol-mx
 C7H14,1-heptene C7H15,n-heptyl  C7H16,n-heptane C7H16,2-methylh C8H8,styrene   
 C8H10,ethylbenz C8H16,1-octene  C8H17,n-octyl   C8H18,n-octane  C8H18,isooctane
 C9H19,n-nonyl   C10H8,naphthale C10H21,n-decyl  C12H9,o-bipheny C12H10,biphenyl
 HCN             HCO             HCCN            HCCO            HNC            
 HNCO            HNO             HNO2            HNO3            HCHO,formaldehy
 HCOOH           H2O2            (HCOOH)2        *N              NCO            
 *NH             NH2             NH3             NH2OH           NO2            
 NO3             NCN             N2H2            NH2NO2          N2H4           
 N2O             N2O3            N2O4            N2O5            N3             
 N3H             O3              C(gr)           H2O(cr)         H2O(L)         

 NOTE. WEIGHT FRACTION OF FUEL IN TOTAL FUELS AND OF OXIDANT IN TOTAL OXIDANTS



