
 *******************************************************************************

         NASA-GLENN CHEMICAL EQUILIBRIUM PROGRAM CEA2, MAY 21, 2004
                   BY  BONNIE MCBRIDE AND SANFORD GORDON
      REFS: NASA RP-1311, PART I, 1994 AND NASA RP-1311, PART II, 1996

 *******************************************************************************



 prob
 rocket case=13 p,psia=3000, pi/p=3,10,30,300 equilibrium %fuel=67.
 react
   fuel=N2H4(L) wt=80 t,k=298.15
   fuel=Be(a) wt=20 t,k=298.15
   oxid=H2O2(L) wt=100 t,k=298.15
 output
      trace=1.e-10 calories
 end

 OPTIONS: TP=F  HP=F  SP=F  TV=F  UV=F  SV=F  DETN=F  SHOCK=F  REFL=F  INCD=F
 RKT=T  FROZ=F  EQL=T  IONS=F  SIUNIT=F  DEBUGF=F  SHKDBG=F  DETDBG=F  TRNSPT=F

 TRACE= 1.00E-10  S/R= 0.000000E+00  H/R= 0.000000E+00  U/R= 0.000000E+00

 Pc,BAR =   206.841913

 Pc/P =     3.0000    10.0000    30.0000   300.0000

 SUBSONIC AREA RATIOS =

 SUPERSONIC AREA RATIOS =

 NFZ=  1  Mdot/Ac= 0.000000E+00  Ac/At= 0.000000E+00

    REACTANT          WT.FRAC   (ENERGY/R),K   TEMP,K  DENSITY
        EXPLODED FORMULA
 F: N2H4(L)          0.800000   0.605929E+04   298.15  0.0000
          N  2.00000  H  4.00000
 F: Be(a)            0.200000   0.210013E-06   298.15  0.0000
          BE 1.00000
 O: H2O2(L)          1.000000  -0.225846E+05   298.15  0.0000
          H  2.00000  O  2.00000

  SPECIES BEING CONSIDERED IN THIS SYSTEM
 (CONDENSED PHASE MAY HAVE NAME LISTED SEVERAL TIMES)
  LAST thermo.inp UPDATE:    9/09/04

  g11/97  *Be              tpis96  BeH              g 4/01  BeH2           
  j 6/63  BeN              tpis96  *BeO             tpis96  BeOH           
  tpis96  Be(OH)2          tpis96  Be2              tpis96  Be2O           
  tpis96  Be2O2            tpis96  Be3O3            tpis96  Be4O4          
  g 6/97  *H               g10/01  HNO              tpis89  HNO2           
  g 5/99  HNO3             g 4/02  HO2              tpis78  *H2            
  g 8/89  H2O              g 6/99  H2O2             g 5/97  *N             
  g 4/99  *NH              g 3/01  NH2              tpis89  NH3            
  tpis89  NH2OH            tpis89  *NO              g 4/99  NO2            
  j12/64  NO3              tpis78  *N2              g 5/99  N2H2           
  tpis89  NH2NO2           g 4/99  N2H4             g 4/99  N2O            
  g 4/99  N2O3             tpis89  N2O4             g 4/99  N2O5           
  tpis89  N3               g 4/99  N3H              g 5/97  *O             
  g 4/02  *OH              tpis89  *O2              g 8/01  O3             
  srd 93  Be(a)            srd 93  Be(a)            srd 93  Be(b)          
  srd 93  Be(L)            tpis96  BeO(a)           tpis96  BeO(a)         
  tpis96  BeO(b)           tpis96  BeO(L)           tpis96  Be(OH)2(b)     
  tpis96  Be(OH)2(b)       tpis96  Be3N2(a)         tpis96  Be3N2(a)       
  tpis96  Be3N2(b)         tpis96  Be3N2(L)         g11/99  H2O(cr)        
  g 8/01  H2O(L)           g 8/01  H2O(L)         

 O/F =   0.492537

                       EFFECTIVE FUEL     EFFECTIVE OXIDANT        MIXTURE
 ENTHALPY                  h(2)/R              h(1)/R               h0/R
 (KG-MOL)(K)/KG        0.15126869E+03     -0.66396668E+03     -0.11775898E+03

 KG-FORM.WT./KG             bi(2)               bi(1)               b0i
  *N                   0.49929537E-01      0.00000000E+00      0.33452790E-01
  *H                   0.99859074E-01      0.58798142E-01      0.86308967E-01
  *Be                  0.22192184E-01      0.00000000E+00      0.14868763E-01
  *O                   0.00000000E+00      0.58798142E-01      0.19403387E-01

 POINT ITN      T            N           H           BE          O 

   1   14    2602.963     -11.929      -7.755     -10.253     -22.568

 ADD  BeO(b)         
   1    8    3297.810     -12.347      -8.161     -11.765     -19.958

 PHASE CHANGE, REPLACE  BeO(b)         WITH  BeO(L)         
   1    4    3002.540     -12.167      -7.983     -13.058     -20.509

 Pinf/Pt = 1.741893
   2    4    2794.040     -12.311      -8.132     -13.645     -21.084

 PHASE CHANGE, REPLACE  BeO(L)         WITH  BeO(b)         
   2    5    3112.283     -12.514      -8.330     -12.426     -20.294

 ADD  BeO(L)         
   2    5    2851.000     -12.348      -8.168     -13.473     -20.917

 Pinf/Pt = 1.632871
   2    4    2851.000     -12.316      -8.135     -13.473     -20.917

 Pinf/Pt = 1.629422
   2    2    2851.000     -12.315      -8.134     -13.473     -20.917

   3    5    2599.984     -12.451      -8.277     -14.306     -21.726

 PHASE CHANGE, REPLACE  BeO(L)         WITH  BeO(b)         
   3    4    2902.950     -12.654      -8.474     -13.252     -20.777

 ADD  BeO(L)         
   3    4    2851.000     -12.621      -8.441     -13.473     -20.916

   4    5    2204.190     -12.760      -8.601     -16.143     -23.469

 PHASE CHANGE, REPLACE  BeO(L)         WITH  BeO(a)         
   4    4    2449.354     -12.946      -8.778     -15.487     -22.294

 PHASE CHANGE, REPLACE  BeO(a)         WITH  BeO(b)         
   4    2    2449.697     -12.946      -8.778     -15.485     -22.293

   5    5    2063.213     -13.196      -9.043     -18.217     -24.272

 PHASE CHANGE, REPLACE  BeO(b)         WITH  BeO(a)         
   5    2    2068.730     -13.201      -9.047     -18.177     -24.238

   6    5    1398.105     -13.723      -9.604     -27.042     -30.561






              THEORETICAL ROCKET PERFORMANCE ASSUMING EQUILIBRIUM

           COMPOSITION DURING EXPANSION FROM INFINITE AREA COMBUSTOR

 Pin =  3000.0 PSIA
 CASE = 13             

             REACTANT                    WT FRACTION      ENERGY      TEMP
                                          (SEE NOTE)      CAL/MOL       K  
 FUEL        N2H4(L)                      0.8000000     12041.109    298.150
 FUEL        Be(a)                        0.2000000         0.000    298.150
 OXIDANT     H2O2(L)                      1.0000000    -44880.497    298.150

 O/F=    0.49254  %FUEL= 67.000000  R,EQ.RATIO= 2.990367  PHI,EQ.RATIO= 4.980734

                 CHAMBER   THROAT     EXIT     EXIT     EXIT     EXIT
 Pinf/P            1.0000   1.6294   3.0000   10.000   30.000   300.00
 P, ATM            204.14   125.28   68.046   20.414   6.8046  0.68046
 T, K             3002.54  2851.00  2851.00  2449.70  2068.73  1398.11
 RHO, G/CC       1.3776-2 8.9125-3 4.8338-3 1.6929-3 6.6916-4 9.9051-5
 H, CAL/G         -234.01  -403.86  -611.80  -995.93 -1291.19 -1761.87
 U, CAL/G         -592.87  -744.28  -952.71 -1287.95 -1537.45 -1928.24
 G, CAL/G        -10072.6 -9745.93 -9953.86 -9023.02 -8069.94 -6343.14
 S, CAL/(G)(K)     3.2768   3.2768   3.2768   3.2768   3.2768   3.2768

 M, (1/n)          16.627   16.643   16.619   16.670   16.694   16.700
 MW, MOL WT        13.431   13.420   13.405   13.378   13.377   13.378
 (dLV/dLP)t      -1.00278 -1.00211 -1.00265 -1.00097 -1.00023 -1.00002
 (dLV/dLT)p        1.0460   0.0000   0.0000   1.0208   1.0054   1.0001
 Cp, CAL/(G)(K)    0.9735   0.0000   0.0000   0.8127   0.7474   0.6651
 GAMMAs            1.1515   0.9979   0.9974   1.1791   1.1916   1.2180
 SON VEL,M/SEC     1314.9   1192.2   1192.7   1200.2   1108.0    920.8
 MACH NUMBER        0.000    1.000    1.491    2.104    2.684    3.883

 PERFORMANCE PARAMETERS

 Ae/At                      1.0000   1.2363   2.4857   5.3386   30.001
 CSTAR, FT/SEC              6386.7   6386.7   6386.7   6386.7   6386.7
 CF                         0.6124   0.9134   1.2971   1.5279   1.8368
 Ivac,LB-SEC/LB              243.4    263.1    306.8    338.6    384.5
 Isp, LB-SEC/LB              121.6    181.3    257.5    303.3    364.6


 MOLE FRACTIONS

 *Be             8.554 -6 4.103 -6 7.553 -6 2.550 -7 1.917 -9 1.439-16
 BeH             1.324 -6 4.834 -7 6.549 -7 1.101 -8 4.198-11 6.619-19
 BeH2            7.010 -6 2.895 -6 2.886 -6 8.839 -8 9.516-10 6.843-16
 BeN             4.318 -8 1.314 -8 1.781 -8 1.656-10 2.908-13 4.164-22
 *BeO            4.359 -7 1.863 -7 3.431 -7 8.118 -9 3.730-11 6.566-19
 BeOH            2.240 -4 1.248 -4 1.692 -4 1.108 -5 2.335 -7 7.145-13
 Be(OH)2         7.2678-3 5.7344-3 5.7215-3 1.4065-3 2.0281-4 4.5262-7
 Be2O            1.122 -6 4.098 -7 7.545 -7 5.556 -9 5.369-12 5.606-22
 Be2O2           1.849 -7 9.083 -8 1.673 -7 3.178 -9 9.851-12 3.673-20
 Be3O3           3.217 -6 1.970 -6 3.628 -6 7.568 -8 2.573-10 1.125-18
 Be4O4           9.289 -7 7.449 -7 1.372 -6 3.683 -8 1.685-10 1.590-18
 *H              7.1460-3 5.5920-3 7.5786-3 2.8413-3 6.2797-4 3.6751-6
 HNO             8.685 -8 4.126 -8 4.121 -8 3.703 -9 1.521-10 8.697-15
 HNO2            1.924-10 8.096-11 8.089-11 4.762-12 1.022-13 7.412-19
 HO2             2.057 -9 9.303-10 1.262 -9 7.734-11 1.366-12 2.958-18
 *H2             5.1468-1 5.1518-1 5.1377-1 5.1519-1 5.1626-1 5.1664-1
 H2O             5.3371-2 5.4925-2 5.4802-2 5.9185-2 6.0446-2 6.0664-2
 H2O2            4.379 -9 2.132 -9 2.129 -9 2.004-10 7.866-12 3.476-16
 *N              4.187 -7 1.912 -7 2.593 -7 1.691 -8 3.793-10 1.893-15
 *NH             2.333 -6 1.089 -6 1.087 -6 9.190 -8 3.639 -9 1.728-13
 NH2             1.865 -5 9.846 -6 7.232 -6 1.105 -6 1.206 -7 2.264-10
 NH3             3.0669-4 2.1088-4 1.1398-4 4.9816-5 2.7364-5 1.3079-5
 NH2OH           2.606 -9 1.047 -9 5.661-10 4.320-11 2.307-12 9.231-16
 *NO             1.631 -5 1.030 -5 1.399 -5 2.560 -6 2.032 -7 4.624-11
 *N2             2.2449-1 2.2435-1 2.2415-1 2.2374-1 2.2373-1 2.2376-1
 N2H2            7.223 -9 2.737 -9 1.481 -9 9.574-11 4.505-12 1.313-15
 N2O             7.916 -9 3.888 -9 3.887 -9 3.857-10 1.783-11 1.455-15
 N3H             1.411-10 4.533-11 2.455-11 9.133-13 2.029-14 5.267-19
 *O              2.086 -6 1.181 -6 2.177 -6 2.321 -7 7.216 -9 5.494-14
 *OH             2.6710-4 1.9071-4 2.5858-4 7.0364-5 9.3363-6 1.0156-8
 *O2             8.554 -8 5.030 -8 9.273 -8 1.098 -8 3.611-10 3.077-15
 BeO(a)          0.0000 0 0.0000 0 0.0000 0 0.0000 0 1.9869-1 1.9892-1
 BeO(b)          0.0000 0 2.0209-2 1.6164-1 1.9750-1 0.0000 0 0.0000 0
 BeO(L)          1.9218-1 1.7345-1 3.1752-2 0.0000 0 0.0000 0 0.0000 0

  * THERMODYNAMIC PROPERTIES FITTED TO 20000.K

    PRODUCTS WHICH WERE CONSIDERED BUT WHOSE MOLE FRACTIONS
    WERE LESS THAN 1.000000E-10 FOR ALL ASSIGNED CONDITIONS

 Be2             HNO3            NO2             NO3             NH2NO2         
 N2H4            N2O3            N2O4            N2O5            N3             
 O3              Be(a)           Be(b)           Be(L)           Be(OH)2(b)     
 Be3N2(a)        Be3N2(b)        Be3N2(L)        H2O(cr)         H2O(L)         

 NOTE. WEIGHT FRACTION OF FUEL IN TOTAL FUELS AND OF OXIDANT IN TOTAL OXIDANTS



