
 *******************************************************************************

         NASA-GLENN CHEMICAL EQUILIBRIUM PROGRAM CEA2, MAY 21, 2004
                   BY  BONNIE MCBRIDE AND SANFORD GORDON
      REFS: NASA RP-1311, PART I, 1994 AND NASA RP-1311, PART II, 1996

 *******************************************************************************



 problem   case=9 o/f=5.55157,
       rocket  fac   ac/at=1.58  tcest,k=3800
   p,bar=53.3172,
   pi/p=10,100,1000,
   sup,ae/at=25,50,75,
 react
   fuel=H2(L) wt=100.  t,k=20.27
   oxid=O2(L) wt=100.  t,k=90.17
 output
      siunits
 end

 OPTIONS: TP=F  HP=F  SP=F  TV=F  UV=F  SV=F  DETN=F  SHOCK=F  REFL=F  INCD=F
 RKT=T  FROZ=F  EQL=T  IONS=F  SIUNIT=T  DEBUGF=F  SHKDBG=F  DETDBG=F  TRNSPT=F

 TRACE= 0.00E+00  S/R= 0.000000E+00  H/R= 0.000000E+00  U/R= 0.000000E+00

 Pc,BAR =    53.317200

 Pc/P =    10.0000   100.0000  1000.0000

 SUBSONIC AREA RATIOS =

 SUPERSONIC AREA RATIOS =    25.0000    50.0000    75.0000

 NFZ=  1  Mdot/Ac= 0.000000E+00  Ac/At= 1.580000E+00

    REACTANT          WT.FRAC   (ENERGY/R),K   TEMP,K  DENSITY
        EXPLODED FORMULA
 F: H2(L)            1.000000  -0.108389E+04    20.27  0.0000
          H  2.00000
 O: O2(L)            1.000000  -0.156101E+04    90.17  0.0000
          O  2.00000

  SPECIES BEING CONSIDERED IN THIS SYSTEM
 (CONDENSED PHASE MAY HAVE NAME LISTED SEVERAL TIMES)
  LAST thermo.inp UPDATE:    9/09/04

  g 6/97  *H               g 4/02  HO2              tpis78  *H2            
  g 8/89  H2O              g 6/99  H2O2             g 5/97  *O             
  g 4/02  *OH              tpis89  *O2              g 8/01  O3             
  g11/99  H2O(cr)          g 8/01  H2O(L)           g 8/01  H2O(L)         

 O/F =   5.551570

                       EFFECTIVE FUEL     EFFECTIVE OXIDANT        MIXTURE
 ENTHALPY                  h(2)/R              h(1)/R               h0/R
 (KG-MOL)(K)/KG       -0.53767500E+03     -0.48783267E+02     -0.12340534E+03

 KG-FORM.WT./KG             bi(2)               bi(1)               b0i
  *H                   0.99212255E+00      0.00000000E+00      0.15143279E+00
  *O                   0.00000000E+00      0.62502344E-01      0.52962288E-01

 POINT ITN      T            H           O 
   1    9    3383.845      -9.262     -16.577
   2    3    3375.883      -9.299     -16.595
 Pinf/Pt = 1.737372
   3    4    3179.843      -9.467     -16.998
 Pinf/Pt = 1.738810
   3    2    3179.552      -9.467     -16.999
   4    3    3347.178      -9.323     -16.650
   4    2    3341.723      -9.328     -16.661
   4    2    3341.059      -9.329     -16.662
   4    1    3341.051      -9.329     -16.662
   2    1    3375.903      -9.299     -16.595
 Pinf/Pt = 1.737373
   3    4    3179.858      -9.467     -16.998
 Pinf/Pt = 1.738811
   3    2    3179.568      -9.467     -16.999
   4    3    3347.198      -9.323     -16.650
   4    2    3341.742      -9.328     -16.661
   4    2    3341.078      -9.329     -16.662
   4    1    3341.070      -9.329     -16.662
 END OF CHAMBER ITERATIONS
   4    5    2595.089      -9.940     -18.703
   5    4    1787.281     -10.478     -23.290
   6    4    1136.042     -10.982     -32.205
   7    5    1443.074     -10.724     -26.955
   7    2    1469.586     -10.704     -26.608
   8    3    1244.272     -10.886     -30.048
   8    2    1220.874     -10.906     -30.480





              THEORETICAL ROCKET PERFORMANCE ASSUMING EQUILIBRIUM

            COMPOSITION DURING EXPANSION FROM FINITE AREA COMBUSTOR

 Pin =   773.3 PSIA
 Ac/At =  1.5800      Pinj/Pinf =  1.084767
 CASE = 9              

             REACTANT                    WT FRACTION      ENERGY      TEMP
                                          (SEE NOTE)     KJ/KG-MOL      K  
 FUEL        H2(L)                        1.0000000     -9012.000     20.270
 OXIDANT     O2(L)                        1.0000000    -12979.000     90.170

 O/F=    5.55157  %FUEL= 15.263517  R,EQ.RATIO= 1.429629  PHI,EQ.RATIO= 1.429629

                 INJECTOR  COMB END  THROAT     EXIT     EXIT     EXIT     EXIT     EXIT
 Pinj/P            1.0000   1.1954   1.8862   10.000  100.000  1000.00   281.74   708.68
 P, BAR            53.317   44.603   28.267   5.3317  0.53317  0.05332  0.18924  0.07523
 T, K             3383.84  3341.07  3179.57  2595.09  1787.28  1136.04  1469.59  1220.87
 RHO, KG/CU M    2.4097 0 2.0439 0 1.3723 0 3.2399-1 4.7379-2 7.4550-3 2.0455-2 9.7886-3
 H, KJ/KG        -1026.05 -1239.23 -2206.45 -5291.36 -8467.11 -10561.9 -9526.83 -10306.5
 U, KJ/KG        -3238.68 -3421.53 -4266.21 -6936.98 -9592.44 -11277.1 -10452.0 -11075.1
 G, KJ/KG        -64163.7 -63756.6 -61701.9 -53850.1 -41910.3 -31819.3 -37025.4 -33151.2
 S, KJ/(KG)(K)    18.6586  18.7118  18.7118  18.7118  18.7118  18.7118  18.7118  18.7118

 M, (1/n)          12.716   12.729   12.835   13.112   13.205   13.207   13.207   13.207
 (dLV/dLP)t      -1.02010 -1.01954 -1.01512 -1.00370 -1.00007 -1.00000 -1.00000 -1.00000
 (dLV/dLT)p        1.3658   1.3599   1.2919   1.0859   1.0022   1.0000   1.0002   1.0000
 Cp, KJ/(KG)(K)    8.3253   8.2938   7.5802   5.0243   3.4587   2.9781   3.2246   3.0430
 GAMMAs            1.1447   1.1443   1.1461   1.1697   1.2237   1.2681   1.2427   1.2609
 SON VEL,M/SEC     1591.5   1580.2   1536.5   1387.4   1173.5    952.3   1072.2    984.4
 MACH NUMBER        0.000    0.413    1.000    2.105    3.287    4.586    3.845    4.376

 PERFORMANCE PARAMETERS

 Ae/At                      1.5800   1.0000   2.2282   11.536   64.766   25.000   50.000
 CSTAR, M/SEC               2331.0   2331.0   2331.0   2331.0   2331.0   2331.0   2331.0
 CF                         0.2801   0.6592   1.2530   1.6550   1.8735   1.7689   1.8482
 Ivac, M/SEC                3995.2   2877.1   3484.2   4149.4   4530.9   4347.7   4486.6
 Isp, M/SEC                  653.0   1536.5   2920.7   3857.7   4367.1   4123.3   4308.2


 MOLE FRACTIONS

 *H               0.03350  0.03296  0.02716  0.00889  0.00024  0.00000  0.00002  0.00000
 HO2              0.00001  0.00001  0.00001  0.00000  0.00000  0.00000  0.00000  0.00000
 *H2              0.29479  0.29453  0.29418  0.29677  0.30037  0.30052  0.30051  0.30052
 H2O              0.63456  0.63673  0.65176  0.68895  0.69934  0.69948  0.69948  0.69948
 H2O2             0.00001  0.00000  0.00000  0.00000  0.00000  0.00000  0.00000  0.00000
 *O               0.00207  0.00197  0.00126  0.00009  0.00000  0.00000  0.00000  0.00000
 *OH              0.03334  0.03214  0.02455  0.00521  0.00004  0.00000  0.00000  0.00000
 *O2              0.00172  0.00165  0.00109  0.00009  0.00000  0.00000  0.00000  0.00000

  * THERMODYNAMIC PROPERTIES FITTED TO 20000.K

    PRODUCTS WHICH WERE CONSIDERED BUT WHOSE MOLE FRACTIONS
    WERE LESS THAN 5.000000E-06 FOR ALL ASSIGNED CONDITIONS

 O3              H2O(cr)         H2O(L)         

 NOTE. WEIGHT FRACTION OF FUEL IN TOTAL FUELS AND OF OXIDANT IN TOTAL OXIDANTS





   4    3    1068.591     -11.046     -33.777
   4    2    1089.809     -11.026     -33.261





              THEORETICAL ROCKET PERFORMANCE ASSUMING EQUILIBRIUM

            COMPOSITION DURING EXPANSION FROM FINITE AREA COMBUSTOR

 Pin =   773.3 PSIA
 Ac/At =  1.5800      Pinj/Pinf =  1.084767
 CASE = 9              

             REACTANT                    WT FRACTION      ENERGY      TEMP
                                          (SEE NOTE)     KJ/KG-MOL      K  
 FUEL        H2(L)                        1.0000000     -9012.000     20.270
 OXIDANT     O2(L)                        1.0000000    -12979.000     90.170

 O/F=    5.55157  %FUEL= 15.263517  R,EQ.RATIO= 1.429629  PHI,EQ.RATIO= 1.429629

                 INJECTOR  COMB END  THROAT     EXIT
 Pinj/P            1.0000   1.1954   1.8862  1215.75
 P, BAR            53.317   44.603   28.267  0.04386
 T, K             3383.84  3341.07  3179.57  1089.81
 RHO, KG/CU M    2.4097 0 2.0439 0 1.3723 0 6.3921-3
 H, KJ/KG        -1026.05 -1239.23 -2206.45 -10698.7
 U, KJ/KG        -3238.68 -3421.53 -4266.21 -11384.8
 G, KJ/KG        -64163.7 -63756.6 -61701.9 -31091.0
 S, KJ/(KG)(K)    18.6586  18.7118  18.7118  18.7118

 M, (1/n)          12.716   12.729   12.835   13.207
 (dLV/dLP)t      -1.02010 -1.01954 -1.01512 -1.00000
 (dLV/dLT)p        1.3658   1.3599   1.2919   1.0000
 Cp, KJ/(KG)(K)    8.3253   8.2938   7.5802   2.9425
 GAMMAs            1.1447   1.1443   1.1461   1.2722
 SON VEL,M/SEC     1591.5   1580.2   1536.5    934.2
 MACH NUMBER        0.000    0.413    1.000    4.708

 PERFORMANCE PARAMETERS

 Ae/At                      1.5800   1.0000   75.000
 CSTAR, M/SEC               2331.0   2331.0   2331.0
 CF                         0.2801   0.6592   1.8869
 Ivac, M/SEC                3995.2   2877.1   4554.3
 Isp, M/SEC                  653.0   1536.5   4398.3


 MOLE FRACTIONS

 *H               0.03350  0.03296  0.02716  0.00000
 HO2              0.00001  0.00001  0.00001  0.00000
 *H2              0.29479  0.29453  0.29418  0.30052
 H2O              0.63456  0.63673  0.65176  0.69948
 H2O2             0.00001  0.00000  0.00000  0.00000
 *O               0.00207  0.00197  0.00126  0.00000
 *OH              0.03334  0.03214  0.02455  0.00000
 *O2              0.00172  0.00165  0.00109  0.00000

  * THERMODYNAMIC PROPERTIES FITTED TO 20000.K

    PRODUCTS WHICH WERE CONSIDERED BUT WHOSE MOLE FRACTIONS
    WERE LESS THAN 5.000000E-06 FOR ALL ASSIGNED CONDITIONS

 O3              H2O(cr)         H2O(L)         

 NOTE. WEIGHT FRACTION OF FUEL IN TOTAL FUELS AND OF OXIDANT IN TOTAL OXIDANTS



